# generated using pymatgen
data_KInS2
_symmetry_space_group_name_H-M   'P 1'
_cell_length_a   7.83810796
_cell_length_b   7.83810796
_cell_length_c   15.09138483
_cell_angle_alpha   82.51190125
_cell_angle_beta   82.51190125
_cell_angle_gamma   89.98778767
_symmetry_Int_Tables_number   1
_chemical_formula_structural   KInS2
_chemical_formula_sum   'K8 In8 S16'
_cell_volume   911.27453276
_cell_formula_units_Z   8
loop_
 _symmetry_equiv_pos_site_id
 _symmetry_equiv_pos_as_xyz
  1  'x, y, z'
loop_
 _atom_site_type_symbol
 _atom_site_label
 _atom_site_symmetry_multiplicity
 _atom_site_fract_x
 _atom_site_fract_y
 _atom_site_fract_z
 _atom_site_occupancy
  K  K0  1  0.15368445  0.77810391  0.88337627  1
  K  K1  1  0.22189609  0.84631555  0.61662373  1
  K  K2  1  0.84631555  0.22189609  0.11662373  1
  K  K3  1  0.77810391  0.15368445  0.38337627  1
  K  K4  1  0.22138934  0.34490778  0.61799097  1
  K  K5  1  0.65509222  0.77861066  0.88200903  1
  K  K6  1  0.77861066  0.65509222  0.38200903  1
  K  K7  1  0.34490778  0.22138934  0.11799097  1
  In  In8  1  0.91211987  0.28887821  0.84464380  1
  In  In9  1  0.71112179  0.08788013  0.65535620  1
  In  In10  1  0.08788013  0.71112179  0.15535620  1
  In  In11  1  0.28887821  0.91211987  0.34464380  1
  In  In12  1  0.71116674  0.58483106  0.65497501  1
  In  In13  1  0.41516894  0.28883326  0.84502499  1
  In  In14  1  0.28883326  0.41516894  0.34502499  1
  In  In15  1  0.58483106  0.71116674  0.15497501  1
  S  S16  1  0.94702868  0.05297132  0.75000000  1
  S  S17  1  0.05297132  0.94702868  0.25000000  1
  S  S18  1  0.42815905  0.57184095  0.75000000  1
  S  S19  1  0.57184095  0.42815905  0.25000000  1
  S  S20  1  0.13825026  0.26504652  0.94506712  1
  S  S21  1  0.73495348  0.86174974  0.55493288  1
  S  S22  1  0.86174974  0.73495348  0.05493288  1
  S  S23  1  0.26504652  0.13825026  0.44506712  1
  S  S24  1  0.94723502  0.57174713  0.74949338  1
  S  S25  1  0.42825287  0.05276498  0.75050662  1
  S  S26  1  0.05276498  0.42825287  0.25050662  1
  S  S27  1  0.57174713  0.94723502  0.24949338  1
  S  S28  1  0.73596620  0.36160399  0.55359033  1
  S  S29  1  0.63839601  0.26403380  0.94640967  1
  S  S30  1  0.26403380  0.63839601  0.44640967  1
  S  S31  1  0.36160399  0.73596620  0.05359033  1
