# generated using pymatgen
data_Ca4P2O9
_symmetry_space_group_name_H-M   'P 1'
_cell_length_a   11.94582140
_cell_length_b   7.00602757
_cell_length_c   9.43956026
_cell_angle_alpha   89.15197613
_cell_angle_beta   90.00000000
_cell_angle_gamma   90.00000000
_symmetry_Int_Tables_number   1
_chemical_formula_structural   Ca4P2O9
_chemical_formula_sum   'Ca16 P8 O36'
_cell_volume   789.93626430
_cell_formula_units_Z   4
loop_
 _symmetry_equiv_pos_site_id
 _symmetry_equiv_pos_as_xyz
  1  'x, y, z'
loop_
 _atom_site_type_symbol
 _atom_site_label
 _atom_site_symmetry_multiplicity
 _atom_site_fract_x
 _atom_site_fract_y
 _atom_site_fract_z
 _atom_site_occupancy
  Ca  Ca0  1  0.42191733  0.75078873  0.01340194  1
  Ca  Ca1  1  0.94735153  0.51396846  0.41152572  1
  Ca  Ca2  1  0.43100176  0.01214570  0.63706442  1
  Ca  Ca3  1  0.93100176  0.98785430  0.36293558  1
  Ca  Ca4  1  0.44735153  0.48603154  0.58847428  1
  Ca  Ca5  1  0.92191733  0.24921127  0.98659806  1
  Ca  Ca6  1  0.39173368  0.25862250  0.25491835  1
  Ca  Ca7  1  0.89173368  0.74137750  0.74508165  1
  Ca  Ca8  1  0.20052759  0.73019993  0.25290378  1
  Ca  Ca9  1  0.70052759  0.26980007  0.74709622  1
  Ca  Ca10  1  0.19640214  0.23053632  0.53132247  1
  Ca  Ca11  1  0.69640214  0.76946368  0.46867753  1
  Ca  Ca12  1  0.20175000  0.46681747  0.89673516  1
  Ca  Ca13  1  0.70175000  0.53318253  0.10326484  1
  Ca  Ca14  1  0.15651783  0.96781884  0.89276268  1
  Ca  Ca15  1  0.65651783  0.03218116  0.10723732  1
  P  P16  1  0.60860596  0.76730715  0.78532651  1
  P  P17  1  0.10860596  0.23269285  0.21467349  1
  P  P18  1  0.67441926  0.29059780  0.37542408  1
  P  P19  1  0.17441926  0.70940220  0.62457592  1
  P  P20  1  0.95929437  0.23671300  0.68043943  1
  P  P21  1  0.45929437  0.76328700  0.31956057  1
  P  P22  1  0.92353553  0.76194980  0.08962060  1
  P  P23  1  0.42353553  0.23805020  0.91037940  1
  O  O24  1  0.50236678  0.28826373  0.78680350  1
  O  O25  1  0.81459339  0.83505046  0.15980945  1
  O  O26  1  0.39442709  0.41272096  0.00062744  1
  O  O27  1  0.89442709  0.58727904  -0.00062744  1
  O  O28  1  0.56697412  0.75334789  0.22833532  1
  O  O29  1  0.06697412  0.24665211  0.77166468  1
  O  O30  1  0.39130191  0.57923440  0.31047601  1
  O  O31  1  0.89130191  0.42076560  0.68952399  1
  O  O32  1  0.37267785  0.23107097  0.48940147  1
  O  O33  1  0.87267785  0.76892903  0.51059853  1
  O  O34  1  0.23807240  0.73527364  0.01552045  1
  O  O35  1  0.73807240  0.26472636  0.98447955  1
  O  O36  1  0.47297588  0.08221520  0.00726191  1
  O  O37  1  0.97297588  0.91778480  0.99273809  1
  O  O38  1  0.31459339  0.16494954  0.84019055  1
  O  O39  1  0.13318221  0.04450706  0.29413105  1
  O  O40  1  0.48080895  0.72916089  0.77427417  1
  O  O41  1  0.98080895  0.27083911  0.22572583  1
  O  O42  1  0.67810827  0.61361848  0.71212286  1
  O  O43  1  0.17810827  0.38638152  0.28787714  1
  O  O44  1  0.63318221  0.95549294  0.70586895  1
  O  O45  1  0.38350827  0.92105341  0.26157661  1
  O  O46  1  0.63628470  0.77160920  0.94426788  1
  O  O47  1  0.13628470  0.22839080  0.05573212  1
  O  O48  1  0.58976201  0.29004492  0.25050760  1
  O  O49  1  0.08976201  0.70995508  0.74949240  1
  O  O50  1  0.73541301  0.09634947  0.37389628  1
  O  O51  1  0.23541301  0.90365053  0.62610372  1
  O  O52  1  0.75685900  0.45772780  0.34280398  1
  O  O53  1  0.25685900  0.54227220  0.65719602  1
  O  O54  1  0.61748276  0.32783047  0.51642339  1
  O  O55  1  0.11748276  0.67216953  0.48357661  1
  O  O56  1  0.99596542  0.21112320  0.52550039  1
  O  O57  1  0.49596542  0.78887680  0.47449961  1
  O  O58  1  0.88350827  0.07894659  0.73842339  1
  O  O59  1  0.00236678  0.71173627  0.21319650  1
