# generated using pymatgen
data_CdI2
_symmetry_space_group_name_H-M   'P 1'
_cell_length_a   4.28391230
_cell_length_b   4.28391183
_cell_length_c   36.49463825
_cell_angle_alpha   90.00000000
_cell_angle_beta   90.00000000
_cell_angle_gamma   120.00001165
_symmetry_Int_Tables_number   1
_chemical_formula_structural   CdI2
_chemical_formula_sum   'Cd5 I10'
_cell_volume   580.01702144
_cell_formula_units_Z   5
loop_
 _symmetry_equiv_pos_site_id
 _symmetry_equiv_pos_as_xyz
  1  'x, y, z'
loop_
 _atom_site_type_symbol
 _atom_site_label
 _atom_site_symmetry_multiplicity
 _atom_site_fract_x
 _atom_site_fract_y
 _atom_site_fract_z
 _atom_site_occupancy
  Cd  Cd0  1  0.66666700  0.33333300  0.04991029  1
  Cd  Cd1  1  0.66666700  0.33333300  0.45011757  1
  Cd  Cd2  1  0.33333300  0.66666700  0.85018545  1
  Cd  Cd3  1  0.33333300  0.66666700  0.64990118  1
  Cd  Cd4  1  0.66666700  0.33333300  0.24989909  1
  I  I5  1  -0.00000000  0.00000000  0.60270546  1
  I  I6  1  0.00000000  0.00000000  0.20269166  1
  I  I7  1  0.66666700  0.33333300  0.89732569  1
  I  I8  1  0.33333300  0.66666700  0.09711155  1
  I  I9  1  0.00000000  0.00000000  0.00268566  1
  I  I10  1  0.66666700  0.33333300  0.69713303  1
  I  I11  1  0.00000000  0.00000000  0.40289450  1
  I  I12  1  0.33333300  0.66666700  0.29709662  1
  I  I13  1  0.00000000  0.00000000  0.80302061  1
  I  I14  1  0.33333300  0.66666700  0.49732262  1
