# generated using pymatgen
data_Cs8Ta6O19
_symmetry_space_group_name_H-M   'P 1'
_cell_length_a   9.93969279
_cell_length_b   9.93953285
_cell_length_c   9.93975837
_cell_angle_alpha   119.79992747
_cell_angle_beta   119.80098699
_cell_angle_gamma   90.34695835
_symmetry_Int_Tables_number   1
_chemical_formula_structural   Cs8Ta6O19
_chemical_formula_sum   'Cs8 Ta6 O19'
_cell_volume   696.45860584
_cell_formula_units_Z   1
loop_
 _symmetry_equiv_pos_site_id
 _symmetry_equiv_pos_as_xyz
  1  'x, y, z'
loop_
 _atom_site_type_symbol
 _atom_site_label
 _atom_site_symmetry_multiplicity
 _atom_site_fract_x
 _atom_site_fract_y
 _atom_site_fract_z
 _atom_site_occupancy
  Cs  Cs0  1  0.43434729  0.06663573  0.79945706  1
  Cs  Cs1  1  0.06663403  0.26717693  0.63228651  1
  Cs  Cs2  1  0.63489593  0.43434413  0.36772021  1
  Cs  Cs3  1  0.26717424  0.63489614  0.20054877  1
  Cs  Cs4  1  0.56565342  0.93336458  0.20054367  1
  Cs  Cs5  1  0.93336544  0.73282278  0.36771333  1
  Cs  Cs6  1  0.36510376  0.56565639  0.63227963  1
  Cs  Cs7  1  0.73282539  0.36510362  0.79945089  1
  Ta  Ta8  1  0.21403864  0.10516607  0.31921137  1
  Ta  Ta9  1  0.10515593  0.78594934  0.89109617  1
  Ta  Ta10  1  0.89484381  0.21405028  0.10890216  1
  Ta  Ta11  1  0.78596189  0.89483459  0.68078850  1
  Ta  Ta12  1  0.83269827  0.83270092  0.00000447  1
  Ta  Ta13  1  0.16730203  0.16729902  -0.00000434  1
  O  O14  1  0.37019673  0.19908227  0.56927972  1
  O  O15  1  0.19907975  0.62981187  0.82888872  1
  O  O16  1  0.80092028  0.37018843  0.17111155  1
  O  O17  1  0.62980331  0.80091783  0.43072039  1
  O  O18  1  0.70275967  0.70275631  0.99999596  1
  O  O19  1  0.29724031  0.29724363  0.00000430  1
  O  O20  1  0.26100495  0.91375214  0.17475821  1
  O  O21  1  0.91375350  0.73899812  0.65275197  1
  O  O22  1  0.08624652  0.26100157  0.34724756  1
  O  O23  1  0.73899493  0.08624804  0.82524206  1
  O  O24  1  0.31588223  0.22857508  0.26478440  1
  O  O25  1  0.22856719  0.96378662  0.91268632  1
  O  O26  1  0.05110334  0.31588381  0.08731391  1
  O  O27  1  0.96378659  0.05110285  0.73521949  1
  O  O28  1  0.68411743  0.77142491  0.73521513  1
  O  O29  1  0.77143338  0.03621318  0.08731404  1
  O  O30  1  0.94889689  0.68411659  0.91268689  1
  O  O31  1  0.03621370  0.94889814  0.26478234  1
  O  O32  1  0.00000022  0.00000008  0.00000062  1
