# generated using pymatgen
data_Li4Ga3Si3BrO12
_symmetry_space_group_name_H-M   'P 1'
_cell_length_a   8.55439049
_cell_length_b   8.55439049
_cell_length_c   8.55439049
_cell_angle_alpha   90.00000000
_cell_angle_beta   90.00000000
_cell_angle_gamma   90.00000000
_symmetry_Int_Tables_number   1
_chemical_formula_structural   Li4Ga3Si3BrO12
_chemical_formula_sum   'Li8 Ga6 Si6 Br2 O24'
_cell_volume   625.98973691
_cell_formula_units_Z   2
loop_
 _symmetry_equiv_pos_site_id
 _symmetry_equiv_pos_as_xyz
  1  'x, y, z'
loop_
 _atom_site_type_symbol
 _atom_site_label
 _atom_site_symmetry_multiplicity
 _atom_site_fract_x
 _atom_site_fract_y
 _atom_site_fract_z
 _atom_site_occupancy
  Li  Li0  1  0.32129103  0.32129103  0.67870897  1
  Li  Li1  1  0.17870897  0.82129103  0.82129103  1
  Li  Li2  1  0.32129103  0.67870897  0.32129103  1
  Li  Li3  1  0.82129103  0.17870897  0.82129103  1
  Li  Li4  1  0.17870897  0.17870897  0.17870897  1
  Li  Li5  1  0.67870897  0.67870897  0.67870897  1
  Li  Li6  1  0.67870897  0.32129103  0.32129103  1
  Li  Li7  1  0.82129103  0.82129103  0.17870897  1
  Ga  Ga8  1  -0.00000000  0.75000000  0.50000000  1
  Ga  Ga9  1  0.25000000  0.50000000  -0.00000000  1
  Ga  Ga10  1  0.50000000  -0.00000000  0.75000000  1
  Ga  Ga11  1  0.50000000  -0.00000000  0.25000000  1
  Ga  Ga12  1  -0.00000000  0.25000000  0.50000000  1
  Ga  Ga13  1  0.75000000  0.50000000  -0.00000000  1
  Si  Si14  1  -0.00000000  0.50000000  0.25000000  1
  Si  Si15  1  0.50000000  0.75000000  -0.00000000  1
  Si  Si16  1  0.50000000  0.25000000  -0.00000000  1
  Si  Si17  1  -0.00000000  0.50000000  0.75000000  1
  Si  Si18  1  0.75000000  -0.00000000  0.50000000  1
  Si  Si19  1  0.25000000  -0.00000000  0.50000000  1
  Br  Br20  1  -0.00000000  -0.00000000  -0.00000000  1
  Br  Br21  1  0.50000000  0.50000000  0.50000000  1
  O  O22  1  0.90258995  0.62705596  0.64643713  1
  O  O23  1  0.40258995  0.85356287  0.87294404  1
  O  O24  1  0.09741005  0.37294404  0.64643713  1
  O  O25  1  0.85356287  0.87294404  0.40258995  1
  O  O26  1  0.40258995  0.14643713  0.12705596  1
  O  O27  1  0.64643713  0.09741005  0.37294404  1
  O  O28  1  0.37294404  0.35356287  0.90258995  1
  O  O29  1  0.35356287  0.90258995  0.37294404  1
  O  O30  1  0.59741005  0.85356287  0.12705596  1
  O  O31  1  0.14643713  0.12705596  0.40258995  1
  O  O32  1  0.59741005  0.14643713  0.87294404  1
  O  O33  1  0.87294404  0.59741005  0.14643713  1
  O  O34  1  0.14643713  0.87294404  0.59741005  1
  O  O35  1  0.37294404  0.64643713  0.09741005  1
  O  O36  1  0.12705596  0.59741005  0.85356287  1
  O  O37  1  0.62705596  0.64643713  0.90258995  1
  O  O38  1  0.12705596  0.40258995  0.14643713  1
  O  O39  1  0.35356287  0.09741005  0.62705596  1
  O  O40  1  0.09741005  0.62705596  0.35356287  1
  O  O41  1  0.87294404  0.40258995  0.85356287  1
  O  O42  1  0.62705596  0.35356287  0.09741005  1
  O  O43  1  0.64643713  0.90258995  0.62705596  1
  O  O44  1  0.90258995  0.37294404  0.35356287  1
  O  O45  1  0.85356287  0.12705596  0.59741005  1
