# generated using pymatgen
data_ErCoO3
_symmetry_space_group_name_H-M   'P 1'
_cell_length_a   5.08216856
_cell_length_b   5.42485142
_cell_length_c   7.30689250
_cell_angle_alpha   90.00000000
_cell_angle_beta   90.00000000
_cell_angle_gamma   90.00000000
_symmetry_Int_Tables_number   1
_chemical_formula_structural   ErCoO3
_chemical_formula_sum   'Er4 Co4 O12'
_cell_volume   201.45109439
_cell_formula_units_Z   4
loop_
 _symmetry_equiv_pos_site_id
 _symmetry_equiv_pos_as_xyz
  1  'x, y, z'
loop_
 _atom_site_type_symbol
 _atom_site_label
 _atom_site_symmetry_multiplicity
 _atom_site_fract_x
 _atom_site_fract_y
 _atom_site_fract_z
 _atom_site_occupancy
  Er  Er0  1  0.02110082  0.92558193  0.75000000  1
  Er  Er1  1  0.47889918  0.42558193  0.75000000  1
  Er  Er2  1  0.52110082  0.57441807  0.25000000  1
  Er  Er3  1  0.97889918  0.07441807  0.25000000  1
  Co  Co4  1  0.50000000  -0.00000000  0.50000000  1
  Co  Co5  1  0.50000000  -0.00000000  0.00000000  1
  Co  Co6  1  0.00000000  0.50000000  0.50000000  1
  Co  Co7  1  0.00000000  0.50000000  0.00000000  1
  O  O8  1  0.89497259  0.53150614  0.75000000  1
  O  O9  1  0.80952149  0.80201596  0.05237787  1
  O  O10  1  0.19047851  0.19798404  0.55237787  1
  O  O11  1  0.10502741  0.46849386  0.25000000  1
  O  O12  1  0.39497259  0.96849386  0.25000000  1
  O  O13  1  0.69047851  0.30201596  0.44762213  1
  O  O14  1  0.30952149  0.69798404  0.94762213  1
  O  O15  1  0.60502741  0.03150614  0.75000000  1
  O  O16  1  0.19047851  0.19798404  0.94762213  1
  O  O17  1  0.80952149  0.80201596  0.44762213  1
  O  O18  1  0.30952149  0.69798404  0.55237787  1
  O  O19  1  0.69047851  0.30201596  0.05237787  1
