# generated using pymatgen
data_FeF3
_symmetry_space_group_name_H-M   'P 1'
_cell_length_a   5.45772351
_cell_length_b   5.45772254
_cell_length_c   6.68585340
_cell_angle_alpha   90.00000000
_cell_angle_beta   90.00000000
_cell_angle_gamma   120.00004566
_symmetry_Int_Tables_number   1
_chemical_formula_structural   FeF3
_chemical_formula_sum   'Fe3 F9'
_cell_volume   172.46869030
_cell_formula_units_Z   3
loop_
 _symmetry_equiv_pos_site_id
 _symmetry_equiv_pos_as_xyz
  1  'x, y, z'
loop_
 _atom_site_type_symbol
 _atom_site_label
 _atom_site_symmetry_multiplicity
 _atom_site_fract_x
 _atom_site_fract_y
 _atom_site_fract_z
 _atom_site_occupancy
  Fe  Fe0  1  0.66666700  0.33333300  0.33335112  1
  Fe  Fe1  1  0.33333300  0.66666700  0.66664888  1
  Fe  Fe2  1  -0.00000000  0.00000000  -0.00000000  1
  F  F3  1  0.66666319  0.83593489  0.83332870  1
  F  F4  1  0.16406611  0.83073030  0.83332870  1
  F  F5  1  0.16926970  0.33333681  0.83332870  1
  F  F6  1  0.50494219  0.50494219  0.50000000  1
  F  F7  1  0.49505781  -0.00000000  0.50000000  1
  F  F8  1  -0.00000000  0.49505781  0.50000000  1
  F  F9  1  0.83593489  0.66666319  0.16667130  1
  F  F10  1  0.33333681  0.16926970  0.16667130  1
  F  F11  1  0.83073030  0.16406611  0.16667130  1
