# generated using pymatgen
data_Gd(PO3)3
_symmetry_space_group_name_H-M   'P 1'
_cell_length_a   6.95542813
_cell_length_b   6.95542813
_cell_length_c   7.19827637
_cell_angle_alpha   90.00000000
_cell_angle_beta   90.00000000
_cell_angle_gamma   105.23408004
_symmetry_Int_Tables_number   1
_chemical_formula_structural   Gd(PO3)3
_chemical_formula_sum   'Gd2 P6 O18'
_cell_volume   336.00111742
_cell_formula_units_Z   2
loop_
 _symmetry_equiv_pos_site_id
 _symmetry_equiv_pos_as_xyz
  1  'x, y, z'
loop_
 _atom_site_type_symbol
 _atom_site_label
 _atom_site_symmetry_multiplicity
 _atom_site_fract_x
 _atom_site_fract_y
 _atom_site_fract_z
 _atom_site_occupancy
  Gd  Gd0  1  0.12393199  0.12393199  0.50000000  1
  Gd  Gd1  1  0.87606801  0.87606801  -0.00000000  1
  P  P2  1  0.25052570  0.25052570  -0.00000000  1
  P  P3  1  0.31158571  0.66462156  0.45650146  1
  P  P4  1  0.68841429  0.33537844  0.95650146  1
  P  P5  1  0.66462156  0.31158571  0.54349854  1
  P  P6  1  0.33537844  0.68841429  0.04349854  1
  P  P7  1  0.74947430  0.74947430  0.50000000  1
  O  O8  1  0.37292364  0.62707636  0.25000000  1
  O  O9  1  0.52810467  0.74740596  0.54592982  1
  O  O10  1  0.46836308  0.21442586  0.46116917  1
  O  O11  1  0.62707636  0.37292364  0.75000000  1
  O  O12  1  0.82570153  0.21009581  0.53449434  1
  O  O13  1  0.86812475  0.82742622  0.67072841  1
  O  O14  1  0.47189533  0.25259404  0.04592982  1
  O  O15  1  0.74740596  0.52810467  0.45407018  1
  O  O16  1  0.78557414  0.53163692  0.03883083  1
  O  O17  1  0.13187525  0.17257378  0.17072841  1
  O  O18  1  0.21442586  0.46836308  0.53883083  1
  O  O19  1  0.17429847  0.78990419  0.03449434  1
  O  O20  1  0.25259404  0.47189533  0.95407018  1
  O  O21  1  0.78990419  0.17429847  0.96550566  1
  O  O22  1  0.17257378  0.13187525  0.82927159  1
  O  O23  1  0.53163692  0.78557414  0.96116917  1
  O  O24  1  0.21009581  0.82570153  0.46550566  1
  O  O25  1  0.82742622  0.86812475  0.32927159  1
