# generated using pymatgen
data_CdI2
_symmetry_space_group_name_H-M   'P 1'
_cell_length_a   4.29189070
_cell_length_b   4.29189033
_cell_length_c   43.39682764
_cell_angle_alpha   90.00000000
_cell_angle_beta   90.00000000
_cell_angle_gamma   119.99999470
_symmetry_Int_Tables_number   1
_chemical_formula_structural   CdI2
_chemical_formula_sum   'Cd6 I12'
_cell_volume   692.28657153
_cell_formula_units_Z   6
loop_
 _symmetry_equiv_pos_site_id
 _symmetry_equiv_pos_as_xyz
  1  'x, y, z'
loop_
 _atom_site_type_symbol
 _atom_site_label
 _atom_site_symmetry_multiplicity
 _atom_site_fract_x
 _atom_site_fract_y
 _atom_site_fract_z
 _atom_site_occupancy
  Cd  Cd0  1  0.66666700  0.33333300  0.70826498  1
  Cd  Cd1  1  0.33333300  0.66666700  0.87500758  1
  Cd  Cd2  1  0.33333300  0.66666700  0.54167369  1
  Cd  Cd3  1  0.33333300  0.66666700  0.04167127  1
  Cd  Cd4  1  0.33333300  0.66666700  0.37500674  1
  Cd  Cd5  1  0.00000000  0.00000000  0.20828794  1
  I  I6  1  0.00000000  0.00000000  0.83534733  1
  I  I7  1  0.66666700  0.33333300  0.58137041  1
  I  I8  1  0.00000000  0.00000000  0.33534827  1
  I  I9  1  0.66666700  0.33333300  0.41470220  1
  I  I10  1  0.00000000  0.00000000  0.00201335  1
  I  I11  1  0.66666700  0.33333300  0.91470856  1
  I  I12  1  0.66666700  0.33333300  0.24793714  1
  I  I13  1  0.00000000  0.00000000  0.66867813  1
  I  I14  1  0.33333300  0.66666700  0.16867884  1
  I  I15  1  0.66666700  0.33333300  0.08136861  1
  I  I16  1  0.33333300  0.66666700  0.74792213  1
  I  I17  1  0.00000000  0.00000000  0.50201483  1
