# generated using pymatgen
data_Na2B4O7
_symmetry_space_group_name_H-M   'P 1'
_cell_length_a   6.66906432
_cell_length_b   9.55732877
_cell_length_c   13.20725051
_cell_angle_alpha   104.28605680
_cell_angle_beta   91.59220615
_cell_angle_gamma   106.21284621
_symmetry_Int_Tables_number   1
_chemical_formula_structural   Na2B4O7
_chemical_formula_sum   'Na12 B24 O42'
_cell_volume   779.09504306
_cell_formula_units_Z   6
loop_
 _symmetry_equiv_pos_site_id
 _symmetry_equiv_pos_as_xyz
  1  'x, y, z'
loop_
 _atom_site_type_symbol
 _atom_site_label
 _atom_site_symmetry_multiplicity
 _atom_site_fract_x
 _atom_site_fract_y
 _atom_site_fract_z
 _atom_site_occupancy
  Na  Na0  1  0.71035681  0.40617026  0.52345859  1
  Na  Na1  1  0.28964319  0.59382974  0.47654141  1
  Na  Na2  1  0.42788490  0.17839459  0.62468058  1
  Na  Na3  1  0.57211510  0.82160541  0.37531942  1
  Na  Na4  1  0.13354191  0.90543868  0.29951586  1
  Na  Na5  1  0.86645809  0.09456132  0.70048414  1
  Na  Na6  1  0.67288445  0.39890775  0.02971311  1
  Na  Na7  1  0.46320754  0.14919746  0.11387253  1
  Na  Na8  1  0.93354878  0.10590208  0.20157743  1
  Na  Na9  1  0.06645122  0.89409792  0.79842257  1
  Na  Na10  1  0.32711555  0.60109225  0.97028689  1
  Na  Na11  1  0.53679246  0.85080254  0.88612747  1
  B  B12  1  0.87528598  0.17921964  0.95671761  1
  B  B13  1  0.82102623  0.66812870  0.91037910  1
  B  B14  1  0.42056198  0.87492356  0.67174930  1
  B  B15  1  0.76483859  0.39990280  0.29933799  1
  B  B16  1  0.12471402  0.82078036  0.04328239  1
  B  B17  1  0.30011553  0.60329979  0.19788337  1
  B  B18  1  0.69988447  0.39670021  0.80211663  1
  B  B19  1  0.30522443  0.24954604  0.42338213  1
  B  B20  1  0.08183494  0.85061234  0.57452937  1
  B  B21  1  0.70113119  0.59581863  0.71727238  1
  B  B22  1  0.17897377  0.33187130  0.08962090  1
  B  B23  1  0.23628902  0.21836532  0.90335586  1
  B  B24  1  0.23033877  0.39244031  0.77809677  1
  B  B25  1  0.29886881  0.40418137  0.28272762  1
  B  B26  1  0.45660503  0.88239854  0.16866333  1
  B  B27  1  0.23516141  0.60009720  0.70066201  1
  B  B28  1  0.54339497  0.11760146  0.83133667  1
  B  B29  1  0.57943802  0.12507644  0.32825070  1
  B  B30  1  0.69477557  0.75045396  0.57661787  1
  B  B31  1  0.76371098  0.78163468  0.09664414  1
  B  B32  1  0.76966123  0.60755969  0.22190323  1
  B  B33  1  0.87294131  0.66394305  0.41422311  1
  B  B34  1  0.12705869  0.33605695  0.58577689  1
  B  B35  1  0.91816506  0.14938766  0.42547063  1
  O  O36  1  0.09607413  0.13966359  0.37768415  1
  O  O37  1  0.30453300  0.26777640  0.01563444  1
  O  O38  1  0.69546700  0.73222360  0.98436556  1
  O  O39  1  0.33155004  0.11128626  0.84667612  1
  O  O40  1  0.69677554  0.68790450  0.46555113  1
  O  O41  1  0.28541133  0.54693746  0.78479844  1
  O  O42  1  0.22452920  0.29764485  0.19023664  1
  O  O43  1  0.22517375  0.49874588  0.10504938  1
  O  O44  1  0.26863204  0.94045109  0.63052284  1
  O  O45  1  0.86411192  0.70954713  0.31346557  1
  O  O46  1  0.52700072  0.81777517  0.58588472  1
  O  O47  1  0.13588808  0.29045287  0.68653443  1
  O  O48  1  0.34863712  0.75497110  0.21527803  1
  O  O49  1  0.13117048  0.49835085  0.61028204  1
  O  O50  1  0.86882952  0.50164915  0.38971696  1
  O  O51  1  0.66069227  0.13913781  0.93635560  1
  O  O52  1  0.92581021  0.24297536  0.52378201  1
  O  O53  1  0.71144461  0.24827380  0.28119756  1
  O  O54  1  0.30322446  0.31209550  0.53444887  1
  O  O55  1  0.73136796  0.05954891  0.36947716  1
  O  O56  1  0.65136288  0.24502890  0.78472197  1
  O  O57  1  0.72052803  0.64037401  0.13286276  1
  O  O58  1  0.66844996  0.88871374  0.15332388  1
  O  O59  1  0.95270255  0.26236290  0.05737080  1
  O  O60  1  0.07418979  0.75702464  0.47621799  1
  O  O61  1  0.28855539  0.75172620  0.71880244  1
  O  O62  1  0.33930773  0.86086219  0.06364440  1
  O  O63  1  0.27947197  0.35962599  0.86713724  1
  O  O64  1  0.47299928  0.18222483  0.41411528  1
  O  O65  1  0.00292268  0.14133766  0.88244341  1
  O  O66  1  0.56278361  0.98247177  0.75891143  1
  O  O67  1  0.90392587  0.86033641  0.62231585  1
  O  O68  1  0.77547080  0.70235515  0.80976336  1
  O  O69  1  0.34392307  0.37697605  0.37378608  1
  O  O70  1  0.04729745  0.73763710  0.94262920  1
  O  O71  1  0.77482625  0.50125412  0.89495062  1
  O  O72  1  0.67096776  0.44325509  0.71212034  1
  O  O73  1  0.71458867  0.45306254  0.21520156  1
  O  O74  1  0.65607693  0.62302395  0.62621392  1
  O  O75  1  0.43721639  0.01752823  0.24108857  1
  O  O76  1  0.32903224  0.55674491  0.28787966  1
  O  O77  1  0.99707732  0.85866234  0.11755659  1
