# generated using pymatgen
data_PO2
_symmetry_space_group_name_H-M   'P 1'
_cell_length_a   6.95392334
_cell_length_b   6.96951424
_cell_length_c   6.96951390
_cell_angle_alpha   92.69324390
_cell_angle_beta   95.02920310
_cell_angle_gamma   95.02920272
_symmetry_Int_Tables_number   1
_chemical_formula_structural   PO2
_chemical_formula_sum   'P8 O16'
_cell_volume   334.67580170
_cell_formula_units_Z   8
loop_
 _symmetry_equiv_pos_site_id
 _symmetry_equiv_pos_as_xyz
  1  'x, y, z'
loop_
 _atom_site_type_symbol
 _atom_site_label
 _atom_site_symmetry_multiplicity
 _atom_site_fract_x
 _atom_site_fract_y
 _atom_site_fract_z
 _atom_site_occupancy
  P  P0  1  0.82351281  0.02761694  0.25766102  1
  P  P1  1  0.32351281  0.25766102  0.02761694  1
  P  P2  1  0.55051616  0.71904394  0.35660426  1
  P  P3  1  0.17648719  0.97238306  0.74233898  1
  P  P4  1  0.44948384  0.28095606  0.64339574  1
  P  P5  1  0.94948384  0.64339574  0.28095606  1
  P  P6  1  0.05051616  0.35660426  0.71904394  1
  P  P7  1  0.67648719  0.74233898  0.97238306  1
  O  O8  1  0.75000000  0.61424430  0.38575570  1
  O  O9  1  0.64879132  0.94928505  0.37073207  1
  O  O10  1  0.98481008  0.88628908  0.30409094  1
  O  O11  1  0.75000000  0.96352616  0.03647384  1
  O  O12  1  0.35120868  0.05071495  0.62926793  1
  O  O13  1  0.48481008  0.30409094  0.88628908  1
  O  O14  1  0.25000000  0.03647384  0.96352616  1
  O  O15  1  0.25000000  0.38575570  0.61424430  1
  O  O16  1  0.11360495  0.76937362  0.71239125  1
  O  O17  1  0.14879132  0.37073207  0.94928505  1
  O  O18  1  0.85120868  0.62926793  0.05071495  1
  O  O19  1  0.88639505  0.23062638  0.28760875  1
  O  O20  1  0.61360495  0.71239125  0.76937362  1
  O  O21  1  0.51518992  0.69590906  0.11371092  1
  O  O22  1  0.01518992  0.11371092  0.69590906  1
  O  O23  1  0.38639505  0.28760875  0.23062638  1
