# generated using pymatgen
data_CsK4TlO4
_symmetry_space_group_name_H-M   'P 1'
_cell_length_a   6.84062137
_cell_length_b   11.98793526
_cell_length_c   21.45028458
_cell_angle_alpha   90.00000000
_cell_angle_beta   90.00000000
_cell_angle_gamma   90.00000000
_symmetry_Int_Tables_number   1
_chemical_formula_structural   CsK4TlO4
_chemical_formula_sum   'Cs8 K32 Tl8 O32'
_cell_volume   1759.02900227
_cell_formula_units_Z   8
loop_
 _symmetry_equiv_pos_site_id
 _symmetry_equiv_pos_as_xyz
  1  'x, y, z'
loop_
 _atom_site_type_symbol
 _atom_site_label
 _atom_site_symmetry_multiplicity
 _atom_site_fract_x
 _atom_site_fract_y
 _atom_site_fract_z
 _atom_site_occupancy
  Cs  Cs0  1  0.41441169  0.65852673  0.00036351  1
  Cs  Cs1  1  0.58558831  0.34147327  -0.00036351  1
  Cs  Cs2  1  0.08558831  0.65852673  0.50036351  1
  Cs  Cs3  1  0.91441169  0.84147327  0.00036351  1
  Cs  Cs4  1  0.91441169  0.34147327  0.49963649  1
  Cs  Cs5  1  0.58558831  0.84147327  0.50036351  1
  Cs  Cs6  1  0.08558831  0.15852673  -0.00036351  1
  Cs  Cs7  1  0.41441169  0.15852673  0.49963649  1
  K  K8  1  0.41602131  0.58034254  0.74893099  1
  K  K9  1  0.91018737  0.17179197  0.82515305  1
  K  K10  1  0.08981263  0.82820803  0.17484695  1
  K  K11  1  0.91027848  0.05890865  0.43345022  1
  K  K12  1  0.40672508  0.19831340  0.14364462  1
  K  K13  1  0.91027848  0.55890865  0.06654978  1
  K  K14  1  0.41027848  0.44109135  0.43345022  1
  K  K15  1  0.09327492  0.69831340  0.85635538  1
  K  K16  1  0.58397869  0.41965746  0.25106901  1
  K  K17  1  0.91018737  0.67179197  0.67484695  1
  K  K18  1  0.58981263  0.67179197  0.17484695  1
  K  K19  1  0.41018737  0.32820803  0.82515305  1
  K  K20  1  0.41602131  0.08034254  0.75106901  1
  K  K21  1  0.08972152  0.94109135  0.56654978  1
  K  K22  1  0.59327492  0.30168660  0.64364462  1
  K  K23  1  0.08981263  0.32820803  0.32515305  1
  K  K24  1  0.40672508  0.69831340  0.35635538  1
  K  K25  1  0.08972152  0.44109135  0.93345022  1
  K  K26  1  0.08397869  0.08034254  0.25106901  1
  K  K27  1  0.58972152  0.05890865  0.93345022  1
  K  K28  1  0.90672508  0.80168660  0.35635538  1
  K  K29  1  0.09327492  0.19831340  0.64364462  1
  K  K30  1  0.41018737  0.82820803  0.67484695  1
  K  K31  1  0.58397869  0.91965746  0.24893099  1
  K  K32  1  0.59327492  0.80168660  0.85635538  1
  K  K33  1  0.08397869  0.58034254  0.24893099  1
  K  K34  1  0.91602131  0.41965746  0.75106901  1
  K  K35  1  0.91602131  0.91965746  0.74893099  1
  K  K36  1  0.90672508  0.30168660  0.14364462  1
  K  K37  1  0.58972152  0.55890865  0.56654978  1
  K  K38  1  0.58981263  0.17179197  0.32515305  1
  K  K39  1  0.41027848  0.94109135  0.06654978  1
  Tl  Tl40  1  0.80657313  0.03724606  0.12779414  1
  Tl  Tl41  1  0.69342687  0.03724606  0.62779414  1
  Tl  Tl42  1  0.19342687  0.46275394  0.62779414  1
  Tl  Tl43  1  0.80657313  0.53724606  0.37220586  1
  Tl  Tl44  1  0.30657313  0.96275394  0.37220586  1
  Tl  Tl45  1  0.30657313  0.46275394  0.12779414  1
  Tl  Tl46  1  0.69342687  0.53724606  0.87220586  1
  Tl  Tl47  1  0.19342687  0.96275394  0.87220586  1
  O  O48  1  0.33654818  0.88028461  0.95061483  1
  O  O49  1  0.21477634  0.87182558  0.28765849  1
  O  O50  1  0.71503357  0.36229643  0.36671250  1
  O  O51  1  0.37549579  0.04304908  0.62468551  1
  O  O52  1  0.28496643  0.63770357  0.63328750  1
  O  O53  1  0.28522366  0.87182558  0.78765849  1
  O  O54  1  0.78522366  0.12817442  0.71234151  1
  O  O55  1  0.71477634  0.12817442  0.21234151  1
  O  O56  1  0.16345182  0.88028461  0.45061483  1
  O  O57  1  0.16345182  0.38028461  0.04938517  1
  O  O58  1  0.66345182  0.11971539  0.04938517  1
  O  O59  1  0.37549579  0.54304908  0.87531449  1
  O  O60  1  0.21477634  0.37182558  0.21234151  1
  O  O61  1  0.33654818  0.38028461  0.54938517  1
  O  O62  1  0.28496643  0.13770357  0.86671250  1
  O  O63  1  0.87549579  0.95695092  0.87531449  1
  O  O64  1  0.71503357  0.86229643  0.13328750  1
  O  O65  1  0.21503357  0.63770357  0.13328750  1
  O  O66  1  0.83654818  0.11971539  0.54938517  1
  O  O67  1  0.87549579  0.45695092  0.62468551  1
  O  O68  1  0.62450421  0.45695092  0.12468551  1
  O  O69  1  0.66345182  0.61971539  0.45061483  1
  O  O70  1  0.12450421  0.54304908  0.37531449  1
  O  O71  1  0.78496643  0.86229643  0.63328750  1
  O  O72  1  0.62450421  0.95695092  0.37531449  1
  O  O73  1  0.28522366  0.37182558  0.71234151  1
  O  O74  1  0.78496643  0.36229643  0.86671250  1
  O  O75  1  0.78522366  0.62817442  0.78765849  1
  O  O76  1  0.12450421  0.04304908  0.12468551  1
  O  O77  1  0.83654818  0.61971539  0.95061483  1
  O  O78  1  0.71477634  0.62817442  0.28765849  1
  O  O79  1  0.21503357  0.13770357  0.36671250  1
