# generated using pymatgen
data_Na15S5Cl(O5F)4
_symmetry_space_group_name_H-M   'P 1'
_cell_length_a   12.32685838
_cell_length_b   12.32685851
_cell_length_c   14.15477481
_cell_angle_alpha   90.00000000
_cell_angle_beta   90.00000000
_cell_angle_gamma   119.99999964
_symmetry_Int_Tables_number   1
_chemical_formula_structural   Na15S5Cl(O5F)4
_chemical_formula_sum   'Na45 S15 Cl3 O60 F12'
_cell_volume   1862.68070353
_cell_formula_units_Z   3
loop_
 _symmetry_equiv_pos_site_id
 _symmetry_equiv_pos_as_xyz
  1  'x, y, z'
loop_
 _atom_site_type_symbol
 _atom_site_label
 _atom_site_symmetry_multiplicity
 _atom_site_fract_x
 _atom_site_fract_y
 _atom_site_fract_z
 _atom_site_occupancy
  Na  Na0  1  0.85241294  0.52226896  0.14271835  1
  Na  Na1  1  0.66747906  0.84689144  0.32980027  1
  Na  Na2  1  0.33014398  0.47773104  0.14271835  1
  Na  Na3  1  0.82800438  0.66593162  0.71344376  1
  Na  Na4  1  0.00000000  0.81721614  0.52414081  1
  Na  Na5  1  0.84689144  0.66747906  0.32980027  1
  Na  Na6  1  0.48458322  0.48458322  0.71615597  1
  Na  Na7  1  0.66389538  0.51006540  0.90959660  1
  Na  Na8  1  0.33610462  0.84617002  0.90959660  1
  Na  Na9  1  0.33283957  0.48495018  0.53047664  1
  Na  Na10  1  0.48993460  0.15382998  0.90959660  1
  Na  Na11  1  0.82058762  0.15310856  0.32980027  1
  Na  Na12  1  0.17941238  0.33252094  0.32980027  1
  Na  Na13  1  0.47773104  0.33014398  0.14271835  1
  Na  Na14  1  1.00000000  0.82453762  0.13339856  1
  Na  Na15  1  0.81721614  0.00000000  0.52414081  1
  Na  Na16  1  0.19019227  0.00000000  0.89647999  1
  Na  Na17  1  0.48183672  0.48183672  0.32466257  1
  Na  Na18  1  0.00000000  0.19019227  0.89647999  1
  Na  Na19  1  0.48495018  0.33283957  0.53047664  1
  Na  Na20  1  0.18278386  0.18278386  0.52414081  1
  Na  Na21  1  0.16207276  0.33406838  0.71344376  1
  Na  Na22  1  0.00000000  0.51541678  0.71615597  1
  Na  Na23  1  0.33252094  0.17941238  0.32980027  1
  Na  Na24  1  0.83792724  0.17199562  0.71344376  1
  Na  Na25  1  0.80980773  0.80980773  0.89647999  1
  Na  Na26  1  0.51816328  0.00000000  0.32466257  1
  Na  Na27  1  0.15382998  0.48993460  0.90959660  1
  Na  Na28  1  0.51541678  0.00000000  0.71615597  1
  Na  Na29  1  0.15310856  0.82058762  0.32980027  1
  Na  Na30  1  0.33406838  0.16207276  0.71344376  1
  Na  Na31  1  0.14758706  0.66985602  0.14271835  1
  Na  Na32  1  0.66985602  0.14758706  0.14271835  1
  Na  Na33  1  0.66716043  0.15211061  0.53047664  1
  Na  Na34  1  0.84788939  0.51504982  0.53047664  1
  Na  Na35  1  0.51504982  0.84788939  0.53047664  1
  Na  Na36  1  0.15211061  0.66716043  0.53047664  1
  Na  Na37  1  0.82453762  0.00000000  0.13339856  1
  Na  Na38  1  0.17199562  0.83792724  0.71344376  1
  Na  Na39  1  0.17546238  0.17546238  0.13339856  1
  Na  Na40  1  1.00000000  0.51816328  0.32466257  1
  Na  Na41  1  0.52226896  0.85241294  0.14271835  1
  Na  Na42  1  0.66593162  0.82800438  0.71344376  1
  Na  Na43  1  0.84617002  0.33610462  0.90959660  1
  Na  Na44  1  0.51006540  0.66389538  0.90959660  1
  S  S45  1  1.00000000  0.66877354  0.91756422  1
  S  S46  1  0.33681376  0.00000000  0.50758896  1
  S  S47  1  0.66540954  0.66540954  0.12533964  1
  S  S48  1  0.33333300  0.66666700  0.72225936  1
  S  S49  1  0.66877354  0.00000000  0.91756422  1
  S  S50  1  0.00000000  0.00000000  0.69971977  1
  S  S51  1  0.66318624  0.66318624  0.50758896  1
  S  S52  1  0.00000000  0.33681376  0.50758896  1
  S  S53  1  0.33459046  0.00000000  0.12533964  1
  S  S54  1  0.33333300  0.66666700  0.34511504  1
  S  S55  1  0.66666700  0.33333300  0.34511504  1
  S  S56  1  0.66666700  0.33333300  0.72225936  1
  S  S57  1  0.00000000  0.33459046  0.12533964  1
  S  S58  1  0.00000000  0.00000000  0.32877871  1
  S  S59  1  0.33122646  0.33122646  0.91756422  1
  Cl  Cl60  1  0.66666700  0.33333300  0.04333293  1
  Cl  Cl61  1  0.33333300  0.66666700  0.04333293  1
  Cl  Cl62  1  0.00000000  0.00000000  0.99871920  1
  O  O63  1  0.67204602  0.00000000  0.02272376  1
  O  O64  1  0.22055190  0.88582152  0.53973914  1
  O  O65  1  0.55114462  0.33086469  0.68765654  1
  O  O66  1  0.33086469  0.55114462  0.68765654  1
  O  O67  1  0.44907252  0.77938160  0.31041126  1
  O  O68  1  0.22027992  0.66913531  0.68765654  1
  O  O69  1  0.55151285  0.55151285  0.54821800  1
  O  O70  1  0.66913531  0.22027992  0.68765654  1
  O  O71  1  1.00000000  0.44848715  0.54821800  1
  O  O72  1  0.66666700  0.33333300  0.82794960  1
  O  O73  1  0.11448839  0.00000000  0.73421508  1
  O  O74  1  1.00000000  0.33526051  0.01945255  1
  O  O75  1  0.88535645  0.66674585  0.88032083  1
  O  O76  1  0.77944810  0.66526962  0.53973914  1
  O  O77  1  0.21861060  0.33325415  0.88032083  1
  O  O78  1  0.66674585  0.88535645  0.88032083  1
  O  O79  1  0.32795398  0.32795398  0.02272376  1
  O  O80  1  0.00000000  0.11448839  0.73421508  1
  O  O81  1  0.66526962  0.77944810  0.53973914  1
  O  O82  1  0.77993340  0.66641105  0.16077918  1
  O  O83  1  0.00000000  0.44870337  0.16099311  1
  O  O84  1  0.77938160  0.44907252  0.31041126  1
  O  O85  1  0.44848715  0.00000000  0.54821800  1
  O  O86  1  1.00000000  0.34291137  0.40160178  1
  O  O87  1  0.11464355  0.78138940  0.88032083  1
  O  O88  1  0.33526051  0.00000000  0.01945255  1
  O  O89  1  0.66641105  0.77993340  0.16077918  1
  O  O90  1  0.33325415  0.21861060  0.88032083  1
  O  O91  1  0.88647765  0.22006660  0.16077918  1
  O  O92  1  0.22006660  0.88647765  0.16077918  1
  O  O93  1  0.00000000  0.88568351  0.36382298  1
  O  O94  1  0.66666700  0.33333300  0.45151198  1
  O  O95  1  0.33333300  0.66666700  0.45151198  1
  O  O96  1  0.66473949  0.66473949  0.01945255  1
  O  O97  1  0.00000000  0.00000000  0.59357769  1
  O  O98  1  0.44885538  0.77972008  0.68765654  1
  O  O99  1  0.88551161  0.88551161  0.73421508  1
  O  O100  1  0.88568351  0.00000000  0.36382298  1
  O  O101  1  0.11352235  0.33358895  0.16077918  1
  O  O102  1  0.11431649  0.11431649  0.36382298  1
  O  O103  1  0.55129663  0.55129663  0.16099311  1
  O  O104  1  0.77972008  0.44885538  0.68765654  1
  O  O105  1  0.55092748  0.33030909  0.31041126  1
  O  O106  1  0.00000000  0.00000000  0.22304709  1
  O  O107  1  0.33030909  0.55092748  0.31041126  1
  O  O108  1  0.34291137  0.00000000  0.40160178  1
  O  O109  1  0.88582152  0.22055190  0.53973914  1
  O  O110  1  0.00000000  0.67204602  0.02272376  1
  O  O111  1  0.65708863  0.65708863  0.40160178  1
  O  O112  1  0.44649370  0.44649370  0.88462152  1
  O  O113  1  0.00000000  0.55350630  0.88462152  1
  O  O114  1  0.55350630  0.00000000  0.88462152  1
  O  O115  1  0.33333300  0.66666700  0.82794960  1
  O  O116  1  0.66969091  0.22061840  0.31041126  1
  O  O117  1  0.78138940  0.11464355  0.88032083  1
  O  O118  1  0.33358895  0.11352235  0.16077918  1
  O  O119  1  0.33473038  0.11417848  0.53973914  1
  O  O120  1  0.44870337  0.00000000  0.16099311  1
  O  O121  1  0.22061840  0.66969091  0.31041126  1
  O  O122  1  0.11417848  0.33473038  0.53973914  1
  F  F123  1  0.34054251  0.34054251  0.43268575  1
  F  F124  1  0.65270847  0.65270847  0.79242384  1
  F  F125  1  0.34729153  0.00000000  0.79242384  1
  F  F126  1  0.65945749  0.00000000  0.43268575  1
  F  F127  1  0.00000000  0.65945749  0.43268575  1
  F  F128  1  0.31602754  0.31602754  0.64139355  1
  F  F129  1  0.68397246  0.00000000  0.64139355  1
  F  F130  1  1.00000000  0.34729153  0.79242384  1
  F  F131  1  0.00000000  0.68397246  0.64139355  1
  F  F132  1  0.32328413  0.32328413  0.23220549  1
  F  F133  1  0.67671587  0.00000000  0.23220549  1
  F  F134  1  0.00000000  0.67671587  0.23220549  1
