# generated using pymatgen
data_CaTe2O5
_symmetry_space_group_name_H-M   'P 1'
_cell_length_a   5.71741257
_cell_length_b   9.43363506
_cell_length_c   11.09965380
_cell_angle_alpha   65.17916495
_cell_angle_beta   90.00000000
_cell_angle_gamma   90.00000000
_symmetry_Int_Tables_number   1
_chemical_formula_structural   CaTe2O5
_chemical_formula_sum   'Ca4 Te8 O20'
_cell_volume   543.36846917
_cell_formula_units_Z   4
loop_
 _symmetry_equiv_pos_site_id
 _symmetry_equiv_pos_as_xyz
  1  'x, y, z'
loop_
 _atom_site_type_symbol
 _atom_site_label
 _atom_site_symmetry_multiplicity
 _atom_site_fract_x
 _atom_site_fract_y
 _atom_site_fract_z
 _atom_site_occupancy
  Ca  Ca0  1  0.20071692  0.02084008  0.36067402  1
  Ca  Ca1  1  0.70071692  0.97915992  0.13932598  1
  Ca  Ca2  1  0.79928308  0.97915992  0.63932598  1
  Ca  Ca3  1  0.29928308  0.02084008  0.86067402  1
  Te  Te4  1  0.82087012  0.26330881  0.77837377  1
  Te  Te5  1  0.32087012  0.73669119  0.72162623  1
  Te  Te6  1  0.17912988  0.73669119  0.22162623  1
  Te  Te7  1  0.67912988  0.26330881  0.27837377  1
  Te  Te8  1  0.35548590  0.34903823  0.51058639  1
  Te  Te9  1  0.85548590  0.65096177  0.98941361  1
  Te  Te10  1  0.64451410  0.65096177  0.48941361  1
  Te  Te11  1  0.14451410  0.34903823  0.01058639  1
  O  O12  1  0.89446268  0.47824944  0.90897378  1
  O  O13  1  0.39446268  0.52175056  0.59102622  1
  O  O14  1  0.10553732  0.52175056  0.09102622  1
  O  O15  1  0.60553732  0.47824944  0.40897378  1
  O  O16  1  0.52403032  0.20430574  0.65432754  1
  O  O17  1  0.02403032  0.79569426  0.84567246  1
  O  O18  1  0.47596968  0.79569426  0.34567246  1
  O  O19  1  0.97596968  0.20430574  0.15432754  1
  O  O20  1  0.08999119  0.22587656  0.90229826  1
  O  O21  1  0.58999119  0.77412344  0.59770174  1
  O  O22  1  0.91000881  0.77412344  0.09770174  1
  O  O23  1  0.41000881  0.22587656  0.40229826  1
  O  O24  1  0.50837239  0.14171538  0.21361820  1
  O  O25  1  0.00837239  0.85828462  0.28638180  1
  O  O26  1  0.49162761  0.85828462  0.78638180  1
  O  O27  1  0.99162761  0.14171538  0.71361820  1
  O  O28  1  0.85546771  0.11750145  0.41274200  1
  O  O29  1  0.35546771  0.88249855  0.08725800  1
  O  O30  1  0.14453229  0.88249855  0.58725800  1
  O  O31  1  0.64453229  0.11750145  0.91274200  1
