# generated using pymatgen
data_Cs3Fe2F9
_symmetry_space_group_name_H-M   'P 1'
_cell_length_a   6.31799532
_cell_length_b   6.31799099
_cell_length_c   14.63083764
_cell_angle_alpha   90.00010565
_cell_angle_beta   89.99995161
_cell_angle_gamma   119.99682012
_symmetry_Int_Tables_number   1
_chemical_formula_structural   Cs3Fe2F9
_chemical_formula_sum   'Cs6 Fe4 F18'
_cell_volume   505.79209765
_cell_formula_units_Z   2
loop_
 _symmetry_equiv_pos_site_id
 _symmetry_equiv_pos_as_xyz
  1  'x, y, z'
loop_
 _atom_site_type_symbol
 _atom_site_label
 _atom_site_symmetry_multiplicity
 _atom_site_fract_x
 _atom_site_fract_y
 _atom_site_fract_z
 _atom_site_occupancy
  Cs  Cs0  1  0.33336550  0.66663345  0.74999946  1
  Cs  Cs1  1  0.66663345  0.33336640  0.24999994  1
  Cs  Cs2  1  0.33333348  0.66666735  0.42989496  1
  Cs  Cs3  1  0.66666559  0.33333415  0.92985450  1
  Cs  Cs4  1  0.66666595  0.33333294  0.57014506  1
  Cs  Cs5  1  0.33333381  0.66666739  0.07010430  1
  Fe  Fe6  1  -0.00000488  0.00000462  0.15048692  1
  Fe  Fe7  1  0.00000477  -0.00000524  0.65052793  1
  Fe  Fe8  1  0.00000461  -0.00000273  0.84947335  1
  Fe  Fe9  1  -0.00000469  0.00000436  0.34951324  1
  F  F10  1  0.13384728  0.26771604  0.24999996  1
  F  F11  1  0.86621466  0.13378562  0.75000006  1
  F  F12  1  0.26757287  0.13377726  0.75000029  1
  F  F13  1  0.73228337  0.86615128  0.24999995  1
  F  F14  1  0.13385598  0.86614489  0.24999989  1
  F  F15  1  0.86622114  0.73242673  0.75000020  1
  F  F16  1  0.15130211  0.30261424  0.59197997  1
  F  F17  1  0.84866320  0.15133456  0.09189775  1
  F  F18  1  0.30265159  0.15131746  0.09189637  1
  F  F19  1  0.69738478  0.84869884  0.59197970  1
  F  F20  1  0.15131672  0.84868133  0.59198248  1
  F  F21  1  0.84868524  0.69735020  0.40810327  1
  F  F22  1  0.84866375  0.15133370  0.40810245  1
  F  F23  1  0.84868344  0.69734741  0.09189682  1
  F  F24  1  0.30264939  0.15131640  0.40810318  1
  F  F25  1  0.69738639  0.84870328  0.90801929  1
  F  F26  1  0.15130348  0.30261676  0.90801870  1
  F  F27  1  0.15131603  0.84868230  0.90801801  1
