# generated using pymatgen
data_CdI2
_symmetry_space_group_name_H-M   'P 1'
_cell_length_a   4.28710881
_cell_length_b   4.28710712
_cell_length_c   71.53228878
_cell_angle_alpha   90.00000000
_cell_angle_beta   90.00000000
_cell_angle_gamma   119.99998910
_symmetry_Int_Tables_number   1
_chemical_formula_structural   CdI2
_chemical_formula_sum   'Cd10 I20'
_cell_volume   1138.57499511
_cell_formula_units_Z   10
loop_
 _symmetry_equiv_pos_site_id
 _symmetry_equiv_pos_as_xyz
  1  'x, y, z'
loop_
 _atom_site_type_symbol
 _atom_site_label
 _atom_site_symmetry_multiplicity
 _atom_site_fract_x
 _atom_site_fract_y
 _atom_site_fract_z
 _atom_site_occupancy
  Cd  Cd0  1  0.66666700  0.33333300  0.22512474  1
  Cd  Cd1  1  0.33333300  0.66666700  0.92511913  1
  Cd  Cd2  1  0.66666700  0.33333300  0.02514590  1
  Cd  Cd3  1  0.00000000  -0.00000000  0.82461733  1
  Cd  Cd4  1  0.66666700  0.33333300  0.42512241  1
  Cd  Cd5  1  0.33333300  0.66666700  0.52514217  1
  Cd  Cd6  1  0.33333300  0.66666700  0.72510059  1
  Cd  Cd7  1  0.33333300  0.66666700  0.32461330  1
  Cd  Cd8  1  0.33333300  0.66666700  0.12513332  1
  Cd  Cd9  1  0.00000000  -0.00000000  0.62502877  1
  I  I10  1  0.00000000  -0.00000000  0.10102484  1
  I  I11  1  0.33333300  0.66666700  0.44916783  1
  I  I12  1  0.66666700  0.33333300  0.64901892  1
  I  I13  1  0.00000000  -0.00000000  0.30059604  1
  I  I14  1  0.66666700  0.33333300  0.94917184  1
  I  I15  1  0.00000000  -0.00000000  0.20103077  1
  I  I16  1  0.00000000  0.00000000  0.40101577  1
  I  I17  1  0.66666700  0.33333300  0.34861606  1
  I  I18  1  0.66666700  0.33333300  0.54918481  1
  I  I19  1  0.00000000  -0.00000000  0.90102639  1
  I  I20  1  0.33333300  0.66666700  0.80058448  1
  I  I21  1  0.66666700  0.33333300  0.14917518  1
  I  I22  1  -0.00000000  -0.00000000  0.00105489  1
  I  I23  1  0.33333300  0.66666700  0.04917205  1
  I  I24  1  0.66666700  0.33333300  0.84863478  1
  I  I25  1  0.33333300  0.66666700  0.60099011  1
  I  I26  1  0.33333300  0.66666700  0.24916798  1
  I  I27  1  -0.00000000  0.00000000  0.50103066  1
  I  I28  1  -0.00000000  -0.00000000  0.70102658  1
  I  I29  1  0.66666700  0.33333300  0.74916434  1
