# generated using pymatgen
data_Mn(NO3)2
_symmetry_space_group_name_H-M   'P 1'
_cell_length_a   7.64690518
_cell_length_b   7.64690518
_cell_length_c   7.64690518
_cell_angle_alpha   90.00000000
_cell_angle_beta   90.00000000
_cell_angle_gamma   90.00000000
_symmetry_Int_Tables_number   1
_chemical_formula_structural   Mn(NO3)2
_chemical_formula_sum   'Mn4 N8 O24'
_cell_volume   447.15399497
_cell_formula_units_Z   4
loop_
 _symmetry_equiv_pos_site_id
 _symmetry_equiv_pos_as_xyz
  1  'x, y, z'
loop_
 _atom_site_type_symbol
 _atom_site_label
 _atom_site_symmetry_multiplicity
 _atom_site_fract_x
 _atom_site_fract_y
 _atom_site_fract_z
 _atom_site_occupancy
  Mn  Mn0  1  0.50000000  0.50000000  -0.00000000  1
  Mn  Mn1  1  0.00000000  0.50000000  0.50000000  1
  Mn  Mn2  1  0.50000000  0.00000000  0.50000000  1
  Mn  Mn3  1  0.00000000  0.00000000  -0.00000000  1
  N  N4  1  0.32561894  0.17438106  0.82561894  1
  N  N5  1  0.82561894  0.32561894  0.17438106  1
  N  N6  1  0.17438106  0.82561894  0.32561894  1
  N  N7  1  0.67438106  0.67438106  0.67438106  1
  N  N8  1  0.67438106  0.82561894  0.17438106  1
  N  N9  1  0.17438106  0.67438106  0.82561894  1
  N  N10  1  0.82561894  0.17438106  0.67438106  1
  N  N11  1  0.32561894  0.32561894  0.32561894  1
  O  O12  1  0.44580772  0.28611204  0.81732756  1
  O  O13  1  0.81732756  0.44580772  0.28611204  1
  O  O14  1  0.28611204  0.81732756  0.44580772  1
  O  O15  1  0.21388796  0.18267244  0.94580772  1
  O  O16  1  0.31732756  0.05419228  0.71388796  1
  O  O17  1  0.71388796  0.31732756  0.05419228  1
  O  O18  1  0.68267244  0.55419228  0.78611204  1
  O  O19  1  0.18267244  0.94580772  0.21388796  1
  O  O20  1  0.78611204  0.68267244  0.55419228  1
  O  O21  1  0.94580772  0.21388796  0.18267244  1
  O  O22  1  0.55419228  0.78611204  0.68267244  1
  O  O23  1  0.05419228  0.71388796  0.31732756  1
  O  O24  1  0.55419228  0.71388796  0.18267244  1
  O  O25  1  0.18267244  0.55419228  0.71388796  1
  O  O26  1  0.71388796  0.18267244  0.55419228  1
  O  O27  1  0.78611204  0.81732756  0.05419228  1
  O  O28  1  0.68267244  0.94580772  0.28611204  1
  O  O29  1  0.28611204  0.68267244  0.94580772  1
  O  O30  1  0.31732756  0.44580772  0.21388796  1
  O  O31  1  0.81732756  0.05419228  0.78611204  1
  O  O32  1  0.21388796  0.31732756  0.44580772  1
  O  O33  1  0.05419228  0.78611204  0.81732756  1
  O  O34  1  0.44580772  0.21388796  0.31732756  1
  O  O35  1  0.94580772  0.28611204  0.68267244  1
