# generated using pymatgen
data_K14In4O13
_symmetry_space_group_name_H-M   'P 1'
_cell_length_a   31.32018360
_cell_length_b   6.82883879
_cell_length_c   6.84307395
_cell_angle_alpha   60.94325641
_cell_angle_beta   90.00000000
_cell_angle_gamma   90.00000000
_symmetry_Int_Tables_number   1
_chemical_formula_structural   K14In4O13
_chemical_formula_sum   'K28 In8 O26'
_cell_volume   1279.39002482
_cell_formula_units_Z   2
loop_
 _symmetry_equiv_pos_site_id
 _symmetry_equiv_pos_as_xyz
  1  'x, y, z'
loop_
 _atom_site_type_symbol
 _atom_site_label
 _atom_site_symmetry_multiplicity
 _atom_site_fract_x
 _atom_site_fract_y
 _atom_site_fract_z
 _atom_site_occupancy
  K  K0  1  0.21827799  0.71069296  0.05479876  1
  K  K1  1  0.28172201  0.71069296  0.55479876  1
  K  K2  1  0.00081748  0.27072358  0.95911781  1
  K  K3  1  0.27445700  0.27743571  0.43985659  1
  K  K4  1  0.44750717  0.15646567  0.00071976  1
  K  K5  1  0.11125262  0.74802522  0.04131571  1
  K  K6  1  0.50081748  0.72927642  0.54088219  1
  K  K7  1  0.94750717  0.84353433  0.49928024  1
  K  K8  1  0.61281054  0.71502909  0.54137261  1
  K  K9  1  0.71827799  0.28930704  0.44520124  1
  K  K10  1  0.11281054  0.28497091  0.95862739  1
  K  K11  1  0.65755374  0.13357961  0.00450323  1
  K  K12  1  0.55249283  0.84353433  0.99928024  1
  K  K13  1  0.61125262  0.25197478  0.45868429  1
  K  K14  1  0.77445700  0.72256429  0.06014341  1
  K  K15  1  0.99918252  0.72927642  0.04088219  1
  K  K16  1  0.49918252  0.27072358  0.45911781  1
  K  K17  1  0.38874738  0.74802522  0.54131571  1
  K  K18  1  0.15755374  0.86642039  0.49549677  1
  K  K19  1  0.72554300  0.72256429  0.56014341  1
  K  K20  1  0.05249283  0.15646567  0.50071976  1
  K  K21  1  0.88718946  0.71502909  0.04137261  1
  K  K22  1  0.88874738  0.25197478  0.95868429  1
  K  K23  1  0.84244626  0.13357961  0.50450323  1
  K  K24  1  0.78172201  0.28930704  0.94520124  1
  K  K25  1  0.22554300  0.27743571  0.93985659  1
  K  K26  1  0.34244626  0.86642039  0.99549677  1
  K  K27  1  0.38718946  0.28497091  0.45862739  1
  In  In28  1  0.33404270  0.34236712  0.00086474  1
  In  In29  1  0.94483771  0.32804915  0.49968680  1
  In  In30  1  0.66595730  0.65763288  0.99913526  1
  In  In31  1  0.55516229  0.32804915  0.99968680  1
  In  In32  1  0.05516229  0.67195085  0.50031320  1
  In  In33  1  0.16595730  0.34236712  0.50086474  1
  In  In34  1  0.44483771  0.67195085  0.00031320  1
  In  In35  1  0.83404270  0.65763288  0.49913526  1
  O  O36  1  0.67017726  0.95698008  0.70698818  1
  O  O37  1  0.17220661  0.32023956  0.21228739  1
  O  O38  1  0.60409131  0.53227371  0.00332318  1
  O  O39  1  0.94246916  0.02911100  0.78946716  1
  O  O40  1  0.10409131  0.46772629  0.49667682  1
  O  O41  1  0.21033461  0.56767968  0.49877217  1
  O  O42  1  0.94298862  0.31927903  0.20648601  1
  O  O43  1  0.71033461  0.43232032  0.00122783  1
  O  O44  1  0.44246916  0.97088900  0.71053284  1
  O  O45  1  0.32779339  0.32023956  0.71228739  1
  O  O46  1  0.55701138  0.31927903  0.70648601  1
  O  O47  1  0.05753084  0.97088900  0.21053284  1
  O  O48  1  0.44298862  0.68072097  0.29351399  1
  O  O49  1  0.17017726  0.04301992  0.79301182  1
  O  O50  1  0.55753084  0.02911100  0.28946716  1
  O  O51  1  0.89590869  0.53227371  0.50332318  1
  O  O52  1  0.32982274  0.04301992  0.29301182  1
  O  O53  1  0.00000000  0.50000000  0.50000000  1
  O  O54  1  0.82982274  0.95698008  0.20698818  1
  O  O55  1  0.82779339  0.67976044  0.78771261  1
  O  O56  1  0.28966539  0.56767968  0.99877217  1
  O  O57  1  0.39590869  0.46772629  0.99667682  1
  O  O58  1  0.05701138  0.68072097  0.79351399  1
  O  O59  1  0.50000000  0.50000000  -0.00000000  1
  O  O60  1  0.78966539  0.43232032  0.50122783  1
  O  O61  1  0.67220661  0.67976044  0.28771261  1
