# generated using pymatgen
data_K3Nb3(BO6)2
_symmetry_space_group_name_H-M   'P 1'
_cell_length_a   8.85934697
_cell_length_b   8.85934697
_cell_length_c   3.97555551
_cell_angle_alpha   90.00000000
_cell_angle_beta   90.00000000
_cell_angle_gamma   119.99999712
_symmetry_Int_Tables_number   1
_chemical_formula_structural   K3Nb3(BO6)2
_chemical_formula_sum   'K3 Nb3 B2 O12'
_cell_volume   270.22895904
_cell_formula_units_Z   1
loop_
 _symmetry_equiv_pos_site_id
 _symmetry_equiv_pos_as_xyz
  1  'x, y, z'
loop_
 _atom_site_type_symbol
 _atom_site_label
 _atom_site_symmetry_multiplicity
 _atom_site_fract_x
 _atom_site_fract_y
 _atom_site_fract_z
 _atom_site_occupancy
  K  K0  1  1.00000000  0.59672333  0.49935297  1
  K  K1  1  0.59672333  1.00000000  0.49935297  1
  K  K2  1  0.40327667  0.40327667  0.49935297  1
  Nb  Nb3  1  0.24720538  0.00000000  0.01580105  1
  Nb  Nb4  1  0.75279462  0.75279462  0.01580105  1
  Nb  Nb5  1  0.00000000  0.24720538  0.01580105  1
  B  B6  1  0.33333300  0.66666700  0.98175476  1
  B  B7  1  0.66666700  0.33333300  0.98175476  1
  O  O8  1  0.26324709  0.00000000  0.48552408  1
  O  O9  1  0.31665061  0.81200879  0.98134579  1
  O  O10  1  0.18799121  0.50464282  0.98134579  1
  O  O11  1  0.81944867  1.00000000  0.98676115  1
  O  O12  1  0.81200879  0.31665061  0.98134579  1
  O  O13  1  0.49535718  0.68334939  0.98134579  1
  O  O14  1  1.00000000  0.81944867  0.98676115  1
  O  O15  1  0.18055133  0.18055133  0.98676115  1
  O  O16  1  0.68334939  0.49535718  0.98134579  1
  O  O17  1  0.73675291  0.73675291  0.48552408  1
  O  O18  1  0.50464282  0.18799121  0.98134579  1
  O  O19  1  0.00000000  0.26324709  0.48552408  1
