# generated using pymatgen
data_Na2SbSO4F3
_symmetry_space_group_name_H-M   'P 1'
_cell_length_a   8.25681579
_cell_length_b   8.25681579
_cell_length_c   11.02966494
_cell_angle_alpha   90.00000000
_cell_angle_beta   90.00000000
_cell_angle_gamma   129.24259993
_symmetry_Int_Tables_number   1
_chemical_formula_structural   Na2SbSO4F3
_chemical_formula_sum   'Na8 Sb4 S4 O16 F12'
_cell_volume   582.36404228
_cell_formula_units_Z   4
loop_
 _symmetry_equiv_pos_site_id
 _symmetry_equiv_pos_as_xyz
  1  'x, y, z'
loop_
 _atom_site_type_symbol
 _atom_site_label
 _atom_site_symmetry_multiplicity
 _atom_site_fract_x
 _atom_site_fract_y
 _atom_site_fract_z
 _atom_site_occupancy
  Na  Na0  1  0.96880523  0.46880523  0.25000000  1
  Na  Na1  1  0.61677262  0.38322738  0.00000000  1
  Na  Na2  1  0.03119477  0.53119477  0.75000000  1
  Na  Na3  1  0.38322738  0.61677262  0.00000000  1
  Na  Na4  1  0.11677262  0.88322738  0.50000000  1
  Na  Na5  1  0.53119477  0.03119477  0.75000000  1
  Na  Na6  1  0.46880523  0.96880523  0.25000000  1
  Na  Na7  1  0.88322738  0.11677262  0.50000000  1
  Sb  Sb8  1  0.10830396  0.10830396  0.16514124  1
  Sb  Sb9  1  0.39169604  0.39169604  0.66514124  1
  Sb  Sb10  1  0.89169604  0.89169604  0.83485876  1
  Sb  Sb11  1  0.60830396  0.60830396  0.33485876  1
  S  S12  1  0.31710936  0.68289064  0.50000000  1
  S  S13  1  0.81710936  0.18289064  0.00000000  1
  S  S14  1  0.68289064  0.31710936  0.50000000  1
  S  S15  1  0.18289064  0.81710936  0.00000000  1
  O  O16  1  0.79629397  0.27504930  0.89338216  1
  O  O17  1  0.27504930  0.79629397  0.89338216  1
  O  O18  1  0.71063681  0.95861737  0.97575725  1
  O  O19  1  0.78936319  0.54138263  0.47575725  1
  O  O20  1  0.22495070  0.70370603  0.39338216  1
  O  O21  1  0.72495070  0.20370603  0.10661784  1
  O  O22  1  0.70370603  0.22495070  0.39338216  1
  O  O23  1  0.29629397  0.77504930  0.60661784  1
  O  O24  1  0.54138263  0.78936319  0.47575725  1
  O  O25  1  0.28936319  0.04138263  0.02424275  1
  O  O26  1  0.95861737  0.71063681  0.97575725  1
  O  O27  1  0.77504930  0.29629397  0.60661784  1
  O  O28  1  0.21063681  0.45861737  0.52424275  1
  O  O29  1  0.45861737  0.21063681  0.52424275  1
  O  O30  1  0.20370603  0.72495070  0.10661784  1
  O  O31  1  0.04138263  0.28936319  0.02424275  1
  F  F32  1  0.90325110  0.71654772  0.71786870  1
  F  F33  1  0.37989710  0.37989710  0.11946160  1
  F  F34  1  0.28345228  0.09674890  0.28213130  1
  F  F35  1  0.87989710  0.87989710  0.38053840  1
  F  F36  1  0.21654772  0.40325110  0.78213130  1
  F  F37  1  0.62010290  0.62010290  0.88053840  1
  F  F38  1  0.71654772  0.90325110  0.71786870  1
  F  F39  1  0.78345228  0.59674890  0.21786870  1
  F  F40  1  0.40325110  0.21654772  0.78213130  1
  F  F41  1  0.12010290  0.12010290  0.61946160  1
  F  F42  1  0.09674890  0.28345228  0.28213130  1
  F  F43  1  0.59674890  0.78345228  0.21786870  1
