# generated using pymatgen
data_Na3Sc2(PO4)3
_symmetry_space_group_name_H-M   'P 1'
_cell_length_a   9.02606875
_cell_length_b   9.02607015
_cell_length_c   9.02606951
_cell_angle_alpha   60.00361212
_cell_angle_beta   60.00361154
_cell_angle_gamma   60.00360717
_symmetry_Int_Tables_number   1
_chemical_formula_structural   Na3Sc2(PO4)3
_chemical_formula_sum   'Na6 Sc4 P6 O24'
_cell_volume   520.01582962
_cell_formula_units_Z   2
loop_
 _symmetry_equiv_pos_site_id
 _symmetry_equiv_pos_as_xyz
  1  'x, y, z'
loop_
 _atom_site_type_symbol
 _atom_site_label
 _atom_site_symmetry_multiplicity
 _atom_site_fract_x
 _atom_site_fract_y
 _atom_site_fract_z
 _atom_site_occupancy
  Na  Na0  1  0.25000000  0.87567097  0.62432903  1
  Na  Na1  1  0.62432903  0.25000000  0.87567097  1
  Na  Na2  1  0.37567097  0.75000000  0.12432903  1
  Na  Na3  1  0.87567097  0.62432903  0.25000000  1
  Na  Na4  1  0.12432903  0.37567097  0.75000000  1
  Na  Na5  1  0.75000000  0.12432903  0.37567097  1
  Sc  Sc6  1  0.14692279  0.14692279  0.14692279  1
  Sc  Sc7  1  0.35307721  0.35307721  0.35307721  1
  Sc  Sc8  1  0.85307721  0.85307721  0.85307721  1
  Sc  Sc9  1  0.64692279  0.64692279  0.64692279  1
  P  P10  1  0.45800436  0.04199664  0.75000000  1
  P  P11  1  0.75000000  0.45800436  0.04199664  1
  P  P12  1  0.04199664  0.75000000  0.45800436  1
  P  P13  1  0.54199664  0.95800336  0.25000000  1
  P  P14  1  0.95800336  0.25000000  0.54199664  1
  P  P15  1  0.25000000  0.54199664  0.95800336  1
  O  O16  1  0.27471819  0.51590372  0.12627975  1
  O  O17  1  0.78935629  0.41642866  0.56833436  1
  O  O18  1  0.01590372  0.77471819  0.62627975  1
  O  O19  1  0.43166564  0.21064371  0.58357134  1
  O  O20  1  0.71064371  0.93166564  0.08357134  1
  O  O21  1  0.08357134  0.71064371  0.93166564  1
  O  O22  1  0.28935629  0.06833436  0.91642866  1
  O  O23  1  0.72528181  0.48409628  0.87372025  1
  O  O24  1  0.98409628  0.22528181  0.37372025  1
  O  O25  1  0.21064371  0.58357134  0.43166564  1
  O  O26  1  0.37372025  0.98409628  0.22528181  1
  O  O27  1  0.87372025  0.72528181  0.48409628  1
  O  O28  1  0.93166564  0.08357134  0.71064371  1
  O  O29  1  0.48409628  0.87372025  0.72528181  1
  O  O30  1  0.41642866  0.56833436  0.78935629  1
  O  O31  1  0.51590372  0.12627975  0.27471819  1
  O  O32  1  0.06833436  0.91642866  0.28935629  1
  O  O33  1  0.91642866  0.28935629  0.06833436  1
  O  O34  1  0.12627975  0.27471819  0.51590372  1
  O  O35  1  0.22528181  0.37372025  0.98409628  1
  O  O36  1  0.56833436  0.78935629  0.41642866  1
  O  O37  1  0.58357134  0.43166564  0.21064371  1
  O  O38  1  0.62627975  0.01590372  0.77471819  1
  O  O39  1  0.77471819  0.62627975  0.01590372  1
