# generated using pymatgen
data_Gd2TiO5
_symmetry_space_group_name_H-M   'P 1'
_cell_length_a   3.74584840
_cell_length_b   10.49807509
_cell_length_c   11.34388027
_cell_angle_alpha   90.00000000
_cell_angle_beta   90.00000000
_cell_angle_gamma   90.00000000
_symmetry_Int_Tables_number   1
_chemical_formula_structural   Gd2TiO5
_chemical_formula_sum   'Gd8 Ti4 O20'
_cell_volume   446.08899132
_cell_formula_units_Z   4
loop_
 _symmetry_equiv_pos_site_id
 _symmetry_equiv_pos_as_xyz
  1  'x, y, z'
loop_
 _atom_site_type_symbol
 _atom_site_label
 _atom_site_symmetry_multiplicity
 _atom_site_fract_x
 _atom_site_fract_y
 _atom_site_fract_z
 _atom_site_occupancy
  Gd  Gd0  1  0.75000000  0.36341019  0.44339832  1
  Gd  Gd1  1  0.25000000  0.63658981  0.55660168  1
  Gd  Gd2  1  0.75000000  0.88837588  0.72221203  1
  Gd  Gd3  1  0.75000000  0.38837588  0.77778797  1
  Gd  Gd4  1  0.25000000  0.11162412  0.27778797  1
  Gd  Gd5  1  0.25000000  0.61162412  0.22221203  1
  Gd  Gd6  1  0.75000000  0.86341019  0.05660168  1
  Gd  Gd7  1  0.25000000  0.13658981  0.94339832  1
  Ti  Ti8  1  0.25000000  0.17711957  0.62060251  1
  Ti  Ti9  1  0.75000000  0.32288043  0.12060251  1
  Ti  Ti10  1  0.75000000  0.82288043  0.37939749  1
  Ti  Ti11  1  0.25000000  0.67711957  0.87939749  1
  O  O12  1  0.75000000  0.23998893  0.27005159  1
  O  O13  1  0.25000000  0.26001107  0.77005159  1
  O  O14  1  0.25000000  0.22416039  0.45906189  1
  O  O15  1  0.75000000  0.00677350  0.89554917  1
  O  O16  1  0.75000000  0.98832585  0.34438761  1
  O  O17  1  0.25000000  0.49322650  0.39554917  1
  O  O18  1  0.75000000  0.50677350  0.60445083  1
  O  O19  1  0.75000000  0.77583961  0.54093811  1
  O  O20  1  0.25000000  0.76492328  0.38209786  1
  O  O21  1  0.75000000  0.73507672  0.88209786  1
  O  O22  1  0.75000000  0.27583961  0.95906189  1
  O  O23  1  0.75000000  0.48832585  0.15561239  1
  O  O24  1  0.25000000  0.26492328  0.11790214  1
  O  O25  1  0.25000000  0.01167415  0.65561239  1
  O  O26  1  0.75000000  0.23507672  0.61790214  1
  O  O27  1  0.25000000  0.99322650  0.10445083  1
  O  O28  1  0.75000000  0.73998893  0.22994841  1
  O  O29  1  0.25000000  0.72416039  0.04093811  1
  O  O30  1  0.25000000  0.51167415  0.84438761  1
  O  O31  1  0.25000000  0.76001107  0.72994841  1
