# generated using pymatgen
data_Ba7B4S13
_symmetry_space_group_name_H-M   'P 1'
_cell_length_a   13.14206479
_cell_length_b   13.14206479
_cell_length_c   10.25851560
_cell_angle_alpha   89.96759804
_cell_angle_beta   89.96759804
_cell_angle_gamma   134.02326783
_symmetry_Int_Tables_number   1
_chemical_formula_structural   Ba7B4S13
_chemical_formula_sum   'Ba14 B8 S26'
_cell_volume   1274.01628895
_cell_formula_units_Z   2
loop_
 _symmetry_equiv_pos_site_id
 _symmetry_equiv_pos_as_xyz
  1  'x, y, z'
loop_
 _atom_site_type_symbol
 _atom_site_label
 _atom_site_symmetry_multiplicity
 _atom_site_fract_x
 _atom_site_fract_y
 _atom_site_fract_z
 _atom_site_occupancy
  Ba  Ba0  1  0.00853696  0.99146304  0.25000000  1
  Ba  Ba1  1  0.99146304  0.00853696  0.75000000  1
  Ba  Ba2  1  0.10478449  0.45437849  0.85589642  1
  Ba  Ba3  1  0.49775277  0.50224723  0.75000000  1
  Ba  Ba4  1  0.89521551  0.54562151  0.14410358  1
  Ba  Ba5  1  0.50224723  0.49775277  0.25000000  1
  Ba  Ba6  1  0.06623183  0.72201785  0.53008062  1
  Ba  Ba7  1  0.27798215  0.93376817  0.96991938  1
  Ba  Ba8  1  0.33170925  0.66829075  0.25000000  1
  Ba  Ba9  1  0.93376817  0.27798215  0.46991938  1
  Ba  Ba10  1  0.66829075  0.33170925  0.75000000  1
  Ba  Ba11  1  0.72201785  0.06623183  0.03008062  1
  Ba  Ba12  1  0.45437849  0.10478449  0.35589642  1
  Ba  Ba13  1  0.54562151  0.89521551  0.64410358  1
  B  B14  1  0.06777214  0.29198421  0.15006863  1
  B  B15  1  0.71616251  0.48186355  0.43232601  1
  B  B16  1  0.51813645  0.28383749  0.06767399  1
  B  B17  1  0.28383749  0.51813645  0.56767399  1
  B  B18  1  0.70801579  0.93222786  0.34993137  1
  B  B19  1  0.29198421  0.06777214  0.65006863  1
  B  B20  1  0.48186355  0.71616251  0.93232601  1
  B  B21  1  0.93222786  0.70801579  0.84993137  1
  S  S22  1  0.99835251  0.37616961  0.15230907  1
  S  S23  1  0.62383039  0.00164749  0.34769093  1
  S  S24  1  0.16529376  0.31938553  0.29245022  1
  S  S25  1  0.37489314  0.53984041  0.99814726  1
  S  S26  1  0.00164749  0.62383039  0.84769093  1
  S  S27  1  0.62510686  0.46015959  0.00185274  1
  S  S28  1  0.31938553  0.16529376  0.79245022  1
  S  S29  1  0.79563592  0.20436408  0.75000000  1
  S  S30  1  0.82292650  0.97522844  0.48387441  1
  S  S31  1  0.97522844  0.82292650  0.98387441  1
  S  S32  1  0.18651918  0.34827827  0.64667298  1
  S  S33  1  0.37616961  0.99835251  0.65230907  1
  S  S34  1  0.53984041  0.37489314  0.49814726  1
  S  S35  1  0.68061447  0.83470624  0.20754978  1
  S  S36  1  0.83470624  0.68061447  0.70754978  1
  S  S37  1  0.02477156  0.17707350  0.01612559  1
  S  S38  1  0.65172173  0.81348082  0.85332702  1
  S  S39  1  0.20436408  0.79563592  0.25000000  1
  S  S40  1  0.81348082  0.65172173  0.35332702  1
  S  S41  1  0.20811081  0.59530519  0.56144148  1
  S  S42  1  0.40469481  0.79188919  0.93855852  1
  S  S43  1  0.59530519  0.20811081  0.06144148  1
  S  S44  1  0.17707350  0.02477156  0.51612559  1
  S  S45  1  0.34827827  0.18651918  0.14667298  1
  S  S46  1  0.79188919  0.40469481  0.43855852  1
  S  S47  1  0.46015959  0.62510686  0.50185274  1
