# generated using pymatgen
data_Rb2In3F11
_symmetry_space_group_name_H-M   'P 1'
_cell_length_a   8.10346142
_cell_length_b   6.66338370
_cell_length_c   18.89037418
_cell_angle_alpha   90.44808860
_cell_angle_beta   90.00000000
_cell_angle_gamma   90.00000000
_symmetry_Int_Tables_number   1
_chemical_formula_structural   Rb2In3F11
_chemical_formula_sum   'Rb8 In12 F44'
_cell_volume   1019.98238067
_cell_formula_units_Z   4
loop_
 _symmetry_equiv_pos_site_id
 _symmetry_equiv_pos_as_xyz
  1  'x, y, z'
loop_
 _atom_site_type_symbol
 _atom_site_label
 _atom_site_symmetry_multiplicity
 _atom_site_fract_x
 _atom_site_fract_y
 _atom_site_fract_z
 _atom_site_occupancy
  Rb  Rb0  1  0.25000000  0.23138358  0.84089536  1
  Rb  Rb1  1  0.75000000  0.76861642  0.15910464  1
  Rb  Rb2  1  0.75000000  0.27334137  0.85090647  1
  Rb  Rb3  1  0.25000000  0.72665863  0.14909353  1
  Rb  Rb4  1  0.25000000  0.22730039  0.64919918  1
  Rb  Rb5  1  0.75000000  0.77269961  0.35080082  1
  Rb  Rb6  1  0.75000000  0.26930083  0.65917210  1
  Rb  Rb7  1  0.25000000  0.73069917  0.34082790  1
  In  In8  1  0.49664816  0.74941198  0.96743349  1
  In  In9  1  0.99664816  0.25058802  0.03256651  1
  In  In10  1  0.50335184  0.25058802  0.03256651  1
  In  In11  1  0.00335184  0.74941198  0.96743349  1
  In  In12  1  0.00004631  0.75035483  0.75001548  1
  In  In13  1  0.50004631  0.24964517  0.24998452  1
  In  In14  1  -0.00004631  0.24964517  0.24998452  1
  In  In15  1  0.49995369  0.75035483  0.75001548  1
  In  In16  1  0.99662567  0.75063959  0.53252713  1
  In  In17  1  0.49662567  0.24936041  0.46747287  1
  In  In18  1  0.00337433  0.24936041  0.46747287  1
  In  In19  1  0.50337433  0.75063959  0.53252713  1
  F  F20  1  0.52777430  0.06184628  0.56075144  1
  F  F21  1  0.02777430  0.93815372  0.43924856  1
  F  F22  1  0.47222570  0.93815372  0.43924856  1
  F  F23  1  -0.02777430  0.06184628  0.56075144  1
  F  F24  1  0.52380380  0.44076903  0.56082189  1
  F  F25  1  0.02380380  0.55923097  0.43917811  1
  F  F26  1  0.47619620  0.55923097  0.43917811  1
  F  F27  1  -0.02380380  0.44076903  0.56082189  1
  F  F28  1  0.54505184  0.04976817  0.75682675  1
  F  F29  1  0.04505184  0.95023183  0.24317325  1
  F  F30  1  0.45494816  0.95023183  0.24317325  1
  F  F31  1  0.95494816  0.04976817  0.75682675  1
  F  F32  1  0.45506486  0.45092960  0.74322272  1
  F  F33  1  0.95506486  0.54907040  0.25677728  1
  F  F34  1  0.54493514  0.54907040  0.25677728  1
  F  F35  1  0.47322849  0.43814036  0.93917846  1
  F  F36  1  0.04493514  0.45092960  0.74322272  1
  F  F37  1  0.97659484  0.94062225  0.06083069  1
  F  F38  1  0.52340516  0.94062225  0.06083069  1
  F  F39  1  0.02340516  0.05937775  0.93916931  1
  F  F40  1  0.25000000  0.74990378  0.99768768  1
  F  F41  1  0.75000000  0.25009622  0.00231232  1
  F  F42  1  0.75000000  0.74436393  0.94674760  1
  F  F43  1  0.25000000  0.25563607  0.05325240  1
  F  F44  1  0.25000000  0.83113248  0.72630313  1
  F  F45  1  0.75000000  0.16886752  0.27369687  1
  F  F46  1  0.75000000  0.67030824  0.77401669  1
  F  F47  1  0.25000000  0.32969176  0.22598331  1
  F  F48  1  0.25000000  0.75588201  0.55339621  1
  F  F49  1  0.75000000  0.24411799  0.44660379  1
  F  F50  1  0.75000000  0.74932995  0.50203512  1
  F  F51  1  0.25000000  0.25067005  0.49796488  1
  F  F52  1  0.06088181  0.74742355  0.85782210  1
  F  F53  1  0.56088181  0.25257645  0.14217790  1
  F  F54  1  0.93911819  0.25257645  0.14217790  1
  F  F55  1  0.43911819  0.74742355  0.85782210  1
  F  F56  1  0.93958598  0.75279501  0.64217400  1
  F  F57  1  0.43958598  0.24720499  0.35782600  1
  F  F58  1  0.06041402  0.24720499  0.35782600  1
  F  F59  1  0.56041402  0.75279501  0.64217400  1
  F  F60  1  0.02677151  0.43814036  0.93917846  1
  F  F61  1  0.52677151  0.56185964  0.06082154  1
  F  F62  1  0.97322849  0.56185964  0.06082154  1
  F  F63  1  0.47659484  0.05937775  0.93916931  1
