# generated using pymatgen
data_NaAg(NO2)2
_symmetry_space_group_name_H-M   'P 1'
_cell_length_a   7.62576951
_cell_length_b   6.63950308
_cell_length_c   6.47874973
_cell_angle_alpha   71.07340064
_cell_angle_beta   55.44619614
_cell_angle_gamma   53.48040322
_symmetry_Int_Tables_number   1
_chemical_formula_structural   NaAg(NO2)2
_chemical_formula_sum   'Na2 Ag2 N4 O8'
_cell_volume   217.07327811
_cell_formula_units_Z   2
loop_
 _symmetry_equiv_pos_site_id
 _symmetry_equiv_pos_as_xyz
  1  'x, y, z'
loop_
 _atom_site_type_symbol
 _atom_site_label
 _atom_site_symmetry_multiplicity
 _atom_site_fract_x
 _atom_site_fract_y
 _atom_site_fract_z
 _atom_site_occupancy
  Na  Na0  1  0.73583630  0.26416370  0.73583630  1
  Na  Na1  1  0.98583630  0.51416370  0.98583630  1
  Ag  Ag2  1  0.25009752  0.74990248  0.25009752  1
  Ag  Ag3  1  0.50009752  0.99990248  0.50009752  1
  N  N4  1  0.97962351  0.02037649  0.97962351  1
  N  N5  1  0.22962351  0.27037649  0.22962351  1
  N  N6  1  0.70756499  0.79243501  0.70756499  1
  N  N7  1  0.45756499  0.54243501  0.45756499  1
  O  O8  1  0.70475491  0.60482230  0.83704499  1
  O  O9  1  0.83704499  0.85337879  0.70475491  1
  O  O10  1  0.64517770  0.54524509  0.39662121  1
  O  O11  1  0.09671621  0.08762853  0.99346256  1
  O  O12  1  0.39662121  0.41295501  0.64517770  1
  O  O13  1  0.42780730  0.25653744  0.16237147  1
  O  O14  1  0.99346256  0.82219270  0.09671621  1
  O  O15  1  0.16237147  0.15328379  0.42780730  1
