# generated using pymatgen
data_Cu2WS4
_symmetry_space_group_name_H-M   'P 1'
_cell_length_a   6.50711950
_cell_length_b   6.50711950
_cell_length_c   6.50711950
_cell_angle_alpha   130.73581689
_cell_angle_beta   130.73581689
_cell_angle_gamma   72.23314803
_symmetry_Int_Tables_number   1
_chemical_formula_structural   Cu2WS4
_chemical_formula_sum   'Cu2 W1 S4'
_cell_volume   154.65899716
_cell_formula_units_Z   1
loop_
 _symmetry_equiv_pos_site_id
 _symmetry_equiv_pos_as_xyz
  1  'x, y, z'
loop_
 _atom_site_type_symbol
 _atom_site_label
 _atom_site_symmetry_multiplicity
 _atom_site_fract_x
 _atom_site_fract_y
 _atom_site_fract_z
 _atom_site_occupancy
  Cu  Cu0  1  0.50000000  0.00000000  0.50000000  1
  Cu  Cu1  1  -0.00000000  0.50000000  0.50000000  1
  W  W2  1  -0.00000000  0.00000000  0.00000000  1
  S  S3  1  0.88396454  0.36036477  -0.00000000  1
  S  S4  1  0.36036477  0.88396454  -0.00000000  1
  S  S5  1  0.11603546  0.11603546  0.47640023  1
  S  S6  1  0.63963523  0.63963523  0.52359977  1
