# generated using pymatgen
data_K2Ge2S5
_symmetry_space_group_name_H-M   'P 1'
_cell_length_a   10.83856259
_cell_length_b   10.83856004
_cell_length_c   8.81138623
_cell_angle_alpha   79.87570659
_cell_angle_beta   79.87557564
_cell_angle_gamma   90.10235953
_symmetry_Int_Tables_number   1
_chemical_formula_structural   K2Ge2S5
_chemical_formula_sum   'K8 Ge8 S20'
_cell_volume   1002.55619071
_cell_formula_units_Z   4
loop_
 _symmetry_equiv_pos_site_id
 _symmetry_equiv_pos_as_xyz
  1  'x, y, z'
loop_
 _atom_site_type_symbol
 _atom_site_label
 _atom_site_symmetry_multiplicity
 _atom_site_fract_x
 _atom_site_fract_y
 _atom_site_fract_z
 _atom_site_occupancy
  K  K0  1  0.47021760  0.21361296  0.87962595  1
  K  K1  1  0.78638681  0.52977913  0.62036939  1
  K  K2  1  0.52978978  0.78639028  0.12036382  1
  K  K3  1  0.21360185  0.47021590  0.37963765  1
  K  K4  1  0.78727421  0.94138281  0.61679550  1
  K  K5  1  0.05863052  0.21272300  0.88320023  1
  K  K6  1  0.21272901  0.05862066  0.38320342  1
  K  K7  1  0.94136930  0.78727755  0.11680195  1
  Ge  Ge8  1  0.52567128  0.26657811  0.40534241  1
  Ge  Ge9  1  0.73342209  0.47432813  0.09465759  1
  Ge  Ge10  1  0.47432851  0.73342209  0.59465667  1
  Ge  Ge11  1  0.26657804  0.52567145  0.90534305  1
  Ge  Ge12  1  0.26940727  0.86837488  0.89058525  1
  Ge  Ge13  1  0.13162518  0.73059235  0.60941556  1
  Ge  Ge14  1  0.73059298  0.13162484  0.10941520  1
  Ge  Ge15  1  0.86837375  0.26940757  0.39058339  1
  S  S16  1  0.54092269  0.11301801  0.26001280  1
  S  S17  1  0.88698227  0.45907709  0.23998770  1
  S  S18  1  0.45907740  0.88698205  0.73998729  1
  S  S19  1  0.11301794  0.54092286  0.76001268  1
  S  S20  1  0.32035022  0.75541882  0.44986845  1
  S  S21  1  0.24458099  0.67964867  0.05013131  1
  S  S22  1  0.67964949  0.24458118  0.55013068  1
  S  S23  1  0.75541941  0.32035103  0.94986942  1
  S  S24  1  0.34981978  0.24274744  0.55842143  1
  S  S25  1  0.75725322  0.65018008  0.94157774  1
  S  S26  1  0.65018121  0.75725274  0.44157799  1
  S  S27  1  0.24274781  0.34981948  0.05842314  1
  S  S28  1  0.75371487  0.99187007  0.96721318  1
  S  S29  1  0.00812916  0.24628206  0.53278700  1
  S  S30  1  0.24628598  0.00813117  0.03278712  1
  S  S31  1  0.99186817  0.75371437  0.46721360  1
  S  S32  1  0.88619104  0.11380911  0.24999889  1
  S  S33  1  0.11380889  0.88619089  0.75000079  1
  S  S34  1  0.54433640  0.45566391  0.25000040  1
  S  S35  1  0.45566389  0.54433628  0.74999933  1
