# generated using pymatgen
data_NO2
_symmetry_space_group_name_H-M   'P 1'
_cell_length_a   7.42288084
_cell_length_b   7.42288243
_cell_length_c   7.42288026
_cell_angle_alpha   109.47121740
_cell_angle_beta   109.47122176
_cell_angle_gamma   109.47121901
_symmetry_Int_Tables_number   1
_chemical_formula_structural   NO2
_chemical_formula_sum   'N6 O12'
_cell_volume   314.84416944
_cell_formula_units_Z   6
loop_
 _symmetry_equiv_pos_site_id
 _symmetry_equiv_pos_as_xyz
  1  'x, y, z'
loop_
 _atom_site_type_symbol
 _atom_site_label
 _atom_site_symmetry_multiplicity
 _atom_site_fract_x
 _atom_site_fract_y
 _atom_site_fract_z
 _atom_site_occupancy
  N  N0  1  0.50000000  0.89560094  0.39560094  1
  N  N1  1  0.39560094  0.50000000  0.89560094  1
  N  N2  1  0.50000000  0.10439906  0.60439906  1
  N  N3  1  0.89560094  0.39560094  0.50000000  1
  N  N4  1  0.60439906  0.50000000  0.10439906  1
  N  N5  1  0.10439906  0.60439906  0.50000000  1
  O  O6  1  0.52970589  0.37119586  0.15851003  1
  O  O7  1  0.78731517  0.62880414  0.15851003  1
  O  O8  1  0.37119586  0.84148997  0.21268483  1
  O  O9  1  0.47029411  0.62880414  0.84148997  1
  O  O10  1  0.62880414  0.15851003  0.78731517  1
  O  O11  1  0.37119586  0.15851003  0.52970589  1
  O  O12  1  0.62880414  0.84148997  0.47029411  1
  O  O13  1  0.15851003  0.78731517  0.62880414  1
  O  O14  1  0.15851003  0.52970589  0.37119586  1
  O  O15  1  0.21268483  0.37119586  0.84148997  1
  O  O16  1  0.84148997  0.47029411  0.62880414  1
  O  O17  1  0.84148997  0.21268483  0.37119586  1
