# generated using pymatgen
data_K4Sr(SiO3)3
_symmetry_space_group_name_H-M   'P 1'
_cell_length_a   7.16509591
_cell_length_b   7.16509591
_cell_length_c   10.99913510
_cell_angle_alpha   90.00000000
_cell_angle_beta   90.00000000
_cell_angle_gamma   112.63546337
_symmetry_Int_Tables_number   1
_chemical_formula_structural   K4Sr(SiO3)3
_chemical_formula_sum   'K8 Sr2 Si6 O18'
_cell_volume   521.18410648
_cell_formula_units_Z   2
loop_
 _symmetry_equiv_pos_site_id
 _symmetry_equiv_pos_as_xyz
  1  'x, y, z'
loop_
 _atom_site_type_symbol
 _atom_site_label
 _atom_site_symmetry_multiplicity
 _atom_site_fract_x
 _atom_site_fract_y
 _atom_site_fract_z
 _atom_site_occupancy
  K  K0  1  0.34184421  0.76542484  0.75000000  1
  K  K1  1  0.94486504  0.05513496  -0.00000000  1
  K  K2  1  0.50108987  0.49891013  -0.00000000  1
  K  K3  1  0.23457516  0.65815579  0.25000000  1
  K  K4  1  0.21928768  0.22763834  0.75000000  1
  K  K5  1  0.50108987  0.49891013  0.50000000  1
  K  K6  1  0.77236166  0.78071232  0.25000000  1
  K  K7  1  0.94486504  0.05513496  0.50000000  1
  Sr  Sr8  1  0.72500676  0.25538320  0.75000000  1
  Sr  Sr9  1  0.74461680  0.27499324  0.25000000  1
  Si  Si10  1  0.40858537  0.97999297  0.03110627  1
  Si  Si11  1  0.02000703  0.59141463  0.96889373  1
  Si  Si12  1  0.02000703  0.59141463  0.53110627  1
  Si  Si13  1  0.26026857  0.18866058  0.25000000  1
  Si  Si14  1  0.81133942  0.73973143  0.75000000  1
  Si  Si15  1  0.40858537  0.97999297  0.46889373  1
  O  O16  1  0.94642926  0.72899681  0.87106877  1
  O  O17  1  0.02712677  0.40008986  0.60280245  1
  O  O18  1  0.88689822  0.55288814  0.09048580  1
  O  O19  1  0.27100319  0.05357074  0.12893123  1
  O  O20  1  0.27100319  0.05357074  0.37106877  1
  O  O21  1  0.25977168  0.74022832  -0.00000000  1
  O  O22  1  0.44711186  0.11310178  0.59048580  1
  O  O23  1  0.44711186  0.11310178  0.90951420  1
  O  O24  1  0.59884400  0.54828124  0.75000000  1
  O  O25  1  0.25977168  0.74022832  0.50000000  1
  O  O26  1  0.59991014  0.97287323  0.10280245  1
  O  O27  1  0.04283122  0.20108510  0.25000000  1
  O  O28  1  0.79891490  0.95716878  0.75000000  1
  O  O29  1  0.45171876  0.40115600  0.25000000  1
  O  O30  1  0.88689822  0.55288814  0.40951420  1
  O  O31  1  0.02712677  0.40008986  0.89719755  1
  O  O32  1  0.59991014  0.97287323  0.39719755  1
  O  O33  1  0.94642926  0.72899681  0.62893123  1
