# generated using pymatgen
data_Na3Dy(Si2O5)3
_symmetry_space_group_name_H-M   'P 1'
_cell_length_a   11.65801151
_cell_length_b   11.65801151
_cell_length_c   10.64344900
_cell_angle_alpha   90.00000000
_cell_angle_beta   90.00000000
_cell_angle_gamma   101.14734858
_symmetry_Int_Tables_number   1
_chemical_formula_structural   Na3Dy(Si2O5)3
_chemical_formula_sum   'Na12 Dy4 Si24 O60'
_cell_volume   1419.25139003
_cell_formula_units_Z   4
loop_
 _symmetry_equiv_pos_site_id
 _symmetry_equiv_pos_as_xyz
  1  'x, y, z'
loop_
 _atom_site_type_symbol
 _atom_site_label
 _atom_site_symmetry_multiplicity
 _atom_site_fract_x
 _atom_site_fract_y
 _atom_site_fract_z
 _atom_site_occupancy
  Na  Na0  1  0.92779100  0.07220900  0.24954400  1
  Na  Na1  1  0.76183600  0.76183600  0.00000000  1
  Na  Na2  1  0.47297300  0.02702700  0.25000000  1
  Na  Na3  1  0.52702700  0.97297300  0.75000000  1
  Na  Na4  1  0.42779100  0.57220900  0.25045600  1
  Na  Na5  1  0.97297300  0.52702700  0.25000000  1
  Na  Na6  1  0.26183600  0.26183600  0.50000000  1
  Na  Na7  1  0.02702700  0.47297300  0.75000000  1
  Na  Na8  1  0.23816400  0.23816400  0.00000000  1
  Na  Na9  1  0.57220900  0.42779100  0.74954400  1
  Na  Na10  1  0.07220900  0.92779100  0.75045600  1
  Na  Na11  1  0.73816400  0.73816400  0.50000000  1
  Dy  Dy12  1  0.33993000  0.16007000  0.75000000  1
  Dy  Dy13  1  0.16007000  0.33993000  0.25000000  1
  Dy  Dy14  1  0.83993000  0.66007000  0.75000000  1
  Dy  Dy15  1  0.66007000  0.83993000  0.25000000  1
  Si  Si16  1  0.69181000  0.52775200  0.29968500  1
  Si  Si17  1  0.97224800  0.80819000  0.20031500  1
  Si  Si18  1  0.47170000  0.74178000  0.97988200  1
  Si  Si19  1  0.25822000  0.52830000  0.97988200  1
  Si  Si20  1  0.52775200  0.69181000  0.70031500  1
  Si  Si21  1  0.41644500  0.79654300  0.46599700  1
  Si  Si22  1  0.97170000  0.24178000  0.52011800  1
  Si  Si23  1  0.30819000  0.47224800  0.70031500  1
  Si  Si24  1  0.20345700  0.58355500  0.46599700  1
  Si  Si25  1  0.74178000  0.47170000  0.02011800  1
  Si  Si26  1  0.79654300  0.41644500  0.53400300  1
  Si  Si27  1  0.52830000  0.25822000  0.02011800  1
  Si  Si28  1  0.24178000  0.97170000  0.47988200  1
  Si  Si29  1  0.19181000  0.02775200  0.20031500  1
  Si  Si30  1  0.70345700  0.08355500  0.03400300  1
  Si  Si31  1  0.47224800  0.30819000  0.29968500  1
  Si  Si32  1  0.58355500  0.20345700  0.53400300  1
  Si  Si33  1  0.08355500  0.70345700  0.96599700  1
  Si  Si34  1  0.29654300  0.91644500  0.96599700  1
  Si  Si35  1  0.91644500  0.29654300  0.03400300  1
  Si  Si36  1  0.80819000  0.97224800  0.79968500  1
  Si  Si37  1  0.02775200  0.19181000  0.79968500  1
  Si  Si38  1  0.75822000  0.02830000  0.52011800  1
  Si  Si39  1  0.02830000  0.75822000  0.47988200  1
  O  O40  1  0.07806000  0.25089400  0.42417900  1
  O  O41  1  0.38949300  0.61050700  0.99179000  1
  O  O42  1  0.39064100  0.83821100  0.01360600  1
  O  O43  1  0.65602500  0.65259000  0.31847000  1
  O  O44  1  0.65259000  0.65602500  0.68153000  1
  O  O45  1  0.76528700  0.51531100  0.16853500  1
  O  O46  1  0.84107500  0.48936500  0.65771800  1
  O  O47  1  0.75089400  0.57806000  0.92417900  1
  O  O48  1  0.42194000  0.24910600  0.92417900  1
  O  O49  1  0.15259000  0.15602500  0.81847000  1
  O  O50  1  0.78049700  0.50030400  0.41190000  1
  O  O51  1  0.07162400  0.92837600  0.20235200  1
  O  O52  1  0.25089400  0.07806000  0.57582100  1
  O  O53  1  0.10935900  0.66178900  0.51360600  1
  O  O54  1  0.60935900  0.16178900  0.98639400  1
  O  O55  1  0.89064100  0.33821100  0.48639400  1
  O  O56  1  0.11050700  0.88949300  0.49179000  1
  O  O57  1  0.33250100  0.66749900  0.43669900  1
  O  O58  1  0.98936500  0.34107500  0.15771800  1
  O  O59  1  0.98468900  0.73471300  0.33146500  1
  O  O60  1  0.21950300  0.49969600  0.58810000  1
  O  O61  1  0.50030400  0.78049700  0.58810000  1
  O  O62  1  0.48468900  0.23471300  0.16853500  1
  O  O63  1  0.74910600  0.92194000  0.42417900  1
  O  O64  1  0.65892500  0.01063500  0.15771800  1
  O  O65  1  0.34741000  0.34397500  0.31847000  1
  O  O66  1  0.26528700  0.01531100  0.33146500  1
  O  O67  1  0.84741000  0.84397500  0.18153000  1
  O  O68  1  0.51531100  0.76528700  0.83146500  1
  O  O69  1  0.73471300  0.98468900  0.66853500  1
  O  O70  1  0.88949300  0.11050700  0.50821000  1
  O  O71  1  0.92194000  0.74910600  0.57582100  1
  O  O72  1  0.01531100  0.26528700  0.66853500  1
  O  O73  1  0.28049700  0.00030400  0.08810000  1
  O  O74  1  0.92837600  0.07162400  0.79764800  1
  O  O75  1  0.84397500  0.84741000  0.81847000  1
  O  O76  1  0.66178900  0.10935900  0.48639400  1
  O  O77  1  0.33821100  0.89064100  0.51360600  1
  O  O78  1  0.51063500  0.15892500  0.65771800  1
  O  O79  1  0.16749900  0.83250100  0.93669900  1
  O  O80  1  0.57806000  0.75089400  0.07582100  1
  O  O81  1  0.15892500  0.51063500  0.34228200  1
  O  O82  1  0.99969600  0.71950300  0.08810000  1
  O  O83  1  0.66749900  0.33250100  0.56330100  1
  O  O84  1  0.48936500  0.84107500  0.34228200  1
  O  O85  1  0.83821100  0.39064100  0.98639400  1
  O  O86  1  0.16178900  0.60935900  0.01360600  1
  O  O87  1  0.57162400  0.42837600  0.29764800  1
  O  O88  1  0.83250100  0.16749900  0.06330100  1
  O  O89  1  0.71950300  0.99969600  0.91190000  1
  O  O90  1  0.61050700  0.38949300  0.00821000  1
  O  O91  1  0.49969600  0.21950300  0.41190000  1
  O  O92  1  0.01063500  0.65892500  0.84228200  1
  O  O93  1  0.24910600  0.42194000  0.07582100  1
  O  O94  1  0.23471300  0.48468900  0.83146500  1
  O  O95  1  0.34107500  0.98936500  0.84228200  1
  O  O96  1  0.00030400  0.28049700  0.91190000  1
  O  O97  1  0.34397500  0.34741000  0.68153000  1
  O  O98  1  0.15602500  0.15259000  0.18153000  1
  O  O99  1  0.42837600  0.57162400  0.70235200  1
