# generated using pymatgen
data_KDy2Cl7
_symmetry_space_group_name_H-M   'P 1'
_cell_length_a   12.57306395
_cell_length_b   6.90732391
_cell_length_c   12.82520038
_cell_angle_alpha   90.54314675
_cell_angle_beta   90.00000000
_cell_angle_gamma   90.00000000
_symmetry_Int_Tables_number   1
_chemical_formula_structural   KDy2Cl7
_chemical_formula_sum   'K4 Dy8 Cl28'
_cell_volume   1113.77019493
_cell_formula_units_Z   4
loop_
 _symmetry_equiv_pos_site_id
 _symmetry_equiv_pos_as_xyz
  1  'x, y, z'
loop_
 _atom_site_type_symbol
 _atom_site_label
 _atom_site_symmetry_multiplicity
 _atom_site_fract_x
 _atom_site_fract_y
 _atom_site_fract_z
 _atom_site_occupancy
  K  K0  1  0.20589296  0.71237972  0.96473192  1
  K  K1  1  0.70589296  0.28762028  0.53526808  1
  K  K2  1  0.79410704  0.28762028  0.03526808  1
  K  K3  1  0.29410704  0.71237972  0.46473192  1
  Dy  Dy4  1  0.83933372  0.77665939  0.75227184  1
  Dy  Dy5  1  0.33933372  0.22334061  0.74772816  1
  Dy  Dy6  1  0.16066628  0.22334061  0.24772816  1
  Dy  Dy7  1  0.66066628  0.77665939  0.25227184  1
  Dy  Dy8  1  0.53653453  0.72604757  0.76255441  1
  Dy  Dy9  1  0.03653453  0.27395243  0.73744559  1
  Dy  Dy10  1  0.46346547  0.27395243  0.23744559  1
  Dy  Dy11  1  0.96346547  0.72604757  0.26255441  1
  Cl  Cl12  1  0.68517265  0.75111926  0.60352262  1
  Cl  Cl13  1  0.18517265  0.24888074  0.89647738  1
  Cl  Cl14  1  0.31482735  0.24888074  0.39647738  1
  Cl  Cl15  1  0.81482735  0.75111926  0.10352262  1
  Cl  Cl16  1  0.70261052  0.50472582  0.82524040  1
  Cl  Cl17  1  0.20261052  0.49527418  0.67475960  1
  Cl  Cl18  1  0.29738948  0.49527418  0.17475960  1
  Cl  Cl19  1  0.79738948  0.50472582  0.32524040  1
  Cl  Cl20  1  0.67715208  0.99116404  0.82890344  1
  Cl  Cl21  1  0.17715208  0.00883596  0.67109656  1
  Cl  Cl22  1  0.32284792  0.00883596  0.17109656  1
  Cl  Cl23  1  0.82284792  0.99116404  0.32890344  1
  Cl  Cl24  1  0.92546413  0.52070045  0.61755488  1
  Cl  Cl25  1  0.42546413  0.47929955  0.88244512  1
  Cl  Cl26  1  0.07453587  0.47929955  0.38244512  1
  Cl  Cl27  1  0.57453587  0.52070045  0.11755488  1
  Cl  Cl28  1  0.91004751  0.04113586  0.61821560  1
  Cl  Cl29  1  0.41004751  0.95886414  0.88178440  1
  Cl  Cl30  1  0.08995249  0.95886414  0.38178440  1
  Cl  Cl31  1  0.58995249  0.04113586  0.11821560  1
  Cl  Cl32  1  0.97282671  0.55914710  0.86937760  1
  Cl  Cl33  1  0.47282671  0.44085290  0.63062240  1
  Cl  Cl34  1  0.02717329  0.44085290  0.13062240  1
  Cl  Cl35  1  0.52717329  0.55914710  0.36937760  1
  Cl  Cl36  1  0.94088373  0.04185128  0.87439151  1
  Cl  Cl37  1  0.44088373  0.95814872  0.62560849  1
  Cl  Cl38  1  0.05911627  0.95814872  0.12560849  1
  Cl  Cl39  1  0.55911627  0.04185128  0.37439151  1
