# generated using pymatgen
data_Rb2Ge2S5
_symmetry_space_group_name_H-M   'P 1'
_cell_length_a   11.02820752
_cell_length_b   11.02820752
_cell_length_c   9.16331148
_cell_angle_alpha   79.67341733
_cell_angle_beta   79.67341733
_cell_angle_gamma   90.16568784
_symmetry_Int_Tables_number   1
_chemical_formula_structural   Rb2Ge2S5
_chemical_formula_sum   'Rb8 Ge8 S20'
_cell_volume   1077.93637702
_cell_formula_units_Z   4
loop_
 _symmetry_equiv_pos_site_id
 _symmetry_equiv_pos_as_xyz
  1  'x, y, z'
loop_
 _atom_site_type_symbol
 _atom_site_label
 _atom_site_symmetry_multiplicity
 _atom_site_fract_x
 _atom_site_fract_y
 _atom_site_fract_z
 _atom_site_occupancy
  Rb  Rb0  1  0.47644763  0.21028919  0.87287561  1
  Rb  Rb1  1  0.78971081  0.52355237  0.62712439  1
  Rb  Rb2  1  0.52355237  0.78971081  0.12712439  1
  Rb  Rb3  1  0.21028919  0.47644763  0.37287561  1
  Rb  Rb4  1  0.79136465  0.94252659  0.62590020  1
  Rb  Rb5  1  0.05747341  0.20863535  0.87409980  1
  Rb  Rb6  1  0.20863535  0.05747341  0.37409980  1
  Rb  Rb7  1  0.94252659  0.79136465  0.12590020  1
  Ge  Ge8  1  0.52638106  0.26689686  0.39997385  1
  Ge  Ge9  1  0.73310314  0.47361894  0.10002615  1
  Ge  Ge10  1  0.47361894  0.73310314  0.60002615  1
  Ge  Ge11  1  0.26689686  0.52638106  0.89997385  1
  Ge  Ge12  1  0.26983434  0.86370252  0.88576395  1
  Ge  Ge13  1  0.13629748  0.73016566  0.61423605  1
  Ge  Ge14  1  0.73016566  0.13629748  0.11423605  1
  Ge  Ge15  1  0.86370252  0.26983434  0.38576395  1
  S  S16  1  0.54328516  0.11613479  0.25953080  1
  S  S17  1  0.88386521  0.45671484  0.24046920  1
  S  S18  1  0.45671484  0.88386521  0.74046920  1
  S  S19  1  0.11613479  0.54328516  0.75953080  1
  S  S20  1  0.32233044  0.75505475  0.46132338  1
  S  S21  1  0.24494525  0.67766956  0.03867662  1
  S  S22  1  0.67766956  0.24494525  0.53867662  1
  S  S23  1  0.75505475  0.32233044  0.96132338  1
  S  S24  1  0.35341355  0.24327971  0.54806200  1
  S  S25  1  0.75672029  0.64658645  0.95193800  1
  S  S26  1  0.64658645  0.75672029  0.45193800  1
  S  S27  1  0.24327971  0.35341355  0.04806200  1
  S  S28  1  0.75334742  0.00256268  0.97241353  1
  S  S29  1  -0.00256268  0.24665258  0.52758647  1
  S  S30  1  0.24665258  -0.00256268  0.02758647  1
  S  S31  1  0.00256268  0.75334742  0.47241353  1
  S  S32  1  0.88268915  0.11731085  0.25000000  1
  S  S33  1  0.11731085  0.88268915  0.75000000  1
  S  S34  1  0.54658813  0.45341187  0.25000000  1
  S  S35  1  0.45341187  0.54658813  0.75000000  1
