# generated using pymatgen
data_FeF3
_symmetry_space_group_name_H-M   'P 1'
_cell_length_a   7.31525984
_cell_length_b   7.31525968
_cell_length_c   7.31526592
_cell_angle_alpha   59.99977093
_cell_angle_beta   59.99975616
_cell_angle_gamma   59.99975507
_symmetry_Int_Tables_number   1
_chemical_formula_structural   FeF3
_chemical_formula_sum   'Fe4 F12'
_cell_volume   276.80394061
_cell_formula_units_Z   4
loop_
 _symmetry_equiv_pos_site_id
 _symmetry_equiv_pos_as_xyz
  1  'x, y, z'
loop_
 _atom_site_type_symbol
 _atom_site_label
 _atom_site_symmetry_multiplicity
 _atom_site_fract_x
 _atom_site_fract_y
 _atom_site_fract_z
 _atom_site_occupancy
  Fe  Fe0  1  -0.00000000  0.00000000  0.50000000  1
  Fe  Fe1  1  -0.00000000  0.00000000  0.00000000  1
  Fe  Fe2  1  -0.00000000  0.50000000  0.00000000  1
  Fe  Fe3  1  0.50000000  0.00000000  0.00000000  1
  F  F4  1  0.93856058  0.93856058  0.31143942  1
  F  F5  1  0.93855958  0.31143942  0.31143942  1
  F  F6  1  0.31143942  0.93855958  0.31143942  1
  F  F7  1  0.06143942  0.68856058  0.06143942  1
  F  F8  1  0.68856058  0.06143942  0.06143942  1
  F  F9  1  0.68856058  0.68856058  0.06144042  1
  F  F10  1  0.93856058  0.31143942  0.93856058  1
  F  F11  1  0.06143942  0.06143942  0.68856058  1
  F  F12  1  0.68856058  0.06144042  0.68856058  1
  F  F13  1  0.31143942  0.31143942  0.93855958  1
  F  F14  1  0.06144042  0.68856058  0.68856058  1
  F  F15  1  0.31143942  0.93856058  0.93856058  1
