# generated using pymatgen
data_K3SbTe3
_symmetry_space_group_name_H-M   'P 1'
_cell_length_a   10.47095485
_cell_length_b   10.47095485
_cell_length_c   10.47095485
_cell_angle_alpha   90.00000000
_cell_angle_beta   90.00000000
_cell_angle_gamma   90.00000000
_symmetry_Int_Tables_number   1
_chemical_formula_structural   K3SbTe3
_chemical_formula_sum   'K12 Sb4 Te12'
_cell_volume   1148.04486619
_cell_formula_units_Z   4
loop_
 _symmetry_equiv_pos_site_id
 _symmetry_equiv_pos_as_xyz
  1  'x, y, z'
loop_
 _atom_site_type_symbol
 _atom_site_label
 _atom_site_symmetry_multiplicity
 _atom_site_fract_x
 _atom_site_fract_y
 _atom_site_fract_z
 _atom_site_occupancy
  K  K0  1  0.58032453  0.58032453  0.58032453  1
  K  K1  1  0.91967547  0.41967547  0.08032453  1
  K  K2  1  0.08032453  0.91967547  0.41967547  1
  K  K3  1  0.41967547  0.08032453  0.91967547  1
  K  K4  1  0.32185149  0.32185149  0.32185149  1
  K  K5  1  0.17814851  0.67814851  0.82185149  1
  K  K6  1  0.82185149  0.17814851  0.67814851  1
  K  K7  1  0.67814851  0.82185149  0.17814851  1
  K  K8  1  0.81714892  0.81714892  0.81714892  1
  K  K9  1  0.68285108  0.18285108  0.31714892  1
  K  K10  1  0.31714892  0.68285108  0.18285108  1
  K  K11  1  0.18285108  0.31714892  0.68285108  1
  Sb  Sb12  1  0.02935715  0.02935715  0.02935715  1
  Sb  Sb13  1  0.47064285  0.97064285  0.52935715  1
  Sb  Sb14  1  0.52935715  0.47064285  0.97064285  1
  Sb  Sb15  1  0.97064285  0.52935715  0.47064285  1
  Te  Te16  1  0.22530837  0.60894792  0.49756212  1
  Te  Te17  1  0.49756212  0.22530837  0.60894792  1
  Te  Te18  1  0.60894792  0.49756212  0.22530837  1
  Te  Te19  1  0.89105208  0.50243788  0.72530837  1
  Te  Te20  1  0.99756212  0.27469163  0.39105208  1
  Te  Te21  1  0.39105208  0.99756212  0.27469163  1
  Te  Te22  1  0.00243788  0.77469163  0.10894792  1
  Te  Te23  1  0.50243788  0.72530837  0.89105208  1
  Te  Te24  1  0.10894792  0.00243788  0.77469163  1
  Te  Te25  1  0.72530837  0.89105208  0.50243788  1
  Te  Te26  1  0.77469163  0.10894792  0.00243788  1
  Te  Te27  1  0.27469163  0.39105208  0.99756212  1
