# generated using pymatgen
data_K3Cu2(BiS2)5
_symmetry_space_group_name_H-M   'P 1'
_cell_length_a   4.03482321
_cell_length_b   14.28290543
_cell_length_c   17.78826967
_cell_angle_alpha   90.00000000
_cell_angle_beta   90.00000000
_cell_angle_gamma   90.00000000
_symmetry_Int_Tables_number   1
_chemical_formula_structural   K3Cu2(BiS2)5
_chemical_formula_sum   'K6 Cu4 Bi10 S20'
_cell_volume   1025.12016320
_cell_formula_units_Z   2
loop_
 _symmetry_equiv_pos_site_id
 _symmetry_equiv_pos_as_xyz
  1  'x, y, z'
loop_
 _atom_site_type_symbol
 _atom_site_label
 _atom_site_symmetry_multiplicity
 _atom_site_fract_x
 _atom_site_fract_y
 _atom_site_fract_z
 _atom_site_occupancy
  K  K0  1  0.50000000  0.97499315  0.24663675  1
  K  K1  1  0.50000000  0.02500685  0.75336325  1
  K  K2  1  -0.00000000  0.47499315  0.25336325  1
  K  K3  1  -0.00000000  0.52500685  0.74663675  1
  K  K4  1  0.50000000  0.50000000  0.00000000  1
  K  K5  1  -0.00000000  0.00000000  0.50000000  1
  Cu  Cu6  1  0.00000000  0.21753333  0.24707960  1
  Cu  Cu7  1  0.50000000  0.71753333  0.25292040  1
  Cu  Cu8  1  0.50000000  0.28246667  0.74707960  1
  Cu  Cu9  1  -0.00000000  0.78246667  0.75292040  1
  Bi  Bi10  1  -0.00000000  0.72009083  0.40298824  1
  Bi  Bi11  1  0.50000000  0.23100682  0.39614283  1
  Bi  Bi12  1  -0.00000000  0.27990917  0.59701176  1
  Bi  Bi13  1  -0.00000000  0.26899318  0.89614283  1
  Bi  Bi14  1  0.50000000  0.76899318  0.60385717  1
  Bi  Bi15  1  0.50000000  0.50000000  0.50000000  1
  Bi  Bi16  1  -0.00000000  0.73100682  0.10385717  1
  Bi  Bi17  1  0.50000000  0.22009083  0.09701176  1
  Bi  Bi18  1  0.50000000  0.77990917  0.90298824  1
  Bi  Bi19  1  -0.00000000  0.00000000  0.00000000  1
  S  S20  1  -0.00000000  0.79971809  0.26606488  1
  S  S21  1  0.50000000  0.12340216  0.94640975  1
  S  S22  1  0.50000000  0.29971809  0.23393512  1
  S  S23  1  0.50000000  0.87659784  0.05359025  1
  S  S24  1  -0.00000000  0.66187793  0.96358644  1
  S  S25  1  0.50000000  0.40572239  0.64021396  1
  S  S26  1  -0.00000000  0.20028191  0.73393512  1
  S  S27  1  -0.00000000  0.33812207  0.03641356  1
  S  S28  1  -0.00000000  0.90572239  0.85978604  1
  S  S29  1  0.50000000  0.16187793  0.53641356  1
  S  S30  1  -0.00000000  0.11749376  0.35082906  1
  S  S31  1  -0.00000000  0.88250624  0.64917094  1
  S  S32  1  -0.00000000  0.37659784  0.44640975  1
  S  S33  1  0.50000000  0.83812207  0.46358644  1
  S  S34  1  -0.00000000  0.09427761  0.14021396  1
  S  S35  1  0.50000000  0.61749376  0.14917094  1
  S  S36  1  -0.00000000  0.62340216  0.55359025  1
  S  S37  1  0.50000000  0.70028191  0.76606488  1
  S  S38  1  0.50000000  0.38250624  0.85082906  1
  S  S39  1  0.50000000  0.59427761  0.35978604  1
