# generated using pymatgen
data_Hg3AsSe4Br
_symmetry_space_group_name_H-M   'P 1'
_cell_length_a   7.80581995
_cell_length_b   7.80581995
_cell_length_c   9.83130058
_cell_angle_alpha   90.00000000
_cell_angle_beta   90.00000000
_cell_angle_gamma   120.00000734
_symmetry_Int_Tables_number   1
_chemical_formula_structural   Hg3AsSe4Br
_chemical_formula_sum   'Hg6 As2 Se8 Br2'
_cell_volume   518.77451442
_cell_formula_units_Z   2
loop_
 _symmetry_equiv_pos_site_id
 _symmetry_equiv_pos_as_xyz
  1  'x, y, z'
loop_
 _atom_site_type_symbol
 _atom_site_label
 _atom_site_symmetry_multiplicity
 _atom_site_fract_x
 _atom_site_fract_y
 _atom_site_fract_z
 _atom_site_occupancy
  Hg  Hg0  1  0.49760264  0.50239736  0.24284279  1
  Hg  Hg1  1  0.50239736  0.00479372  0.74284279  1
  Hg  Hg2  1  0.50239736  0.49760264  0.74284279  1
  Hg  Hg3  1  0.00479372  0.50239736  0.24284279  1
  Hg  Hg4  1  0.49760264  0.99520628  0.24284279  1
  Hg  Hg5  1  0.99520628  0.49760264  0.74284279  1
  As  As6  1  -0.00000000  0.00000000  0.22852453  1
  As  As7  1  -0.00000000  0.00000000  0.72852453  1
  Se  Se8  1  0.84995668  0.69991336  0.36272084  1
  Se  Se9  1  0.33333300  0.66666700  0.10708972  1
  Se  Se10  1  0.15004332  0.84995668  0.86272084  1
  Se  Se11  1  0.15004332  0.30008664  0.86272084  1
  Se  Se12  1  0.69991336  0.84995668  0.86272084  1
  Se  Se13  1  0.84995668  0.15004332  0.36272084  1
  Se  Se14  1  0.66666700  0.33333300  0.60708972  1
  Se  Se15  1  0.30008664  0.15004332  0.36272084  1
  Br  Br16  1  0.33333300  0.66666700  0.53179487  1
  Br  Br17  1  0.66666700  0.33333300  0.03179487  1
