# generated using pymatgen
data_Mn3(CoO4)2
_symmetry_space_group_name_H-M   'P 1'
_cell_length_a   4.92771442
_cell_length_b   5.71346621
_cell_length_c   9.07279277
_cell_angle_alpha   90.00000000
_cell_angle_beta   90.00000000
_cell_angle_gamma   90.00000000
_symmetry_Int_Tables_number   1
_chemical_formula_structural   Mn3(CoO4)2
_chemical_formula_sum   'Mn6 Co4 O16'
_cell_volume   255.43840014
_cell_formula_units_Z   2
loop_
 _symmetry_equiv_pos_site_id
 _symmetry_equiv_pos_as_xyz
  1  'x, y, z'
loop_
 _atom_site_type_symbol
 _atom_site_label
 _atom_site_symmetry_multiplicity
 _atom_site_fract_x
 _atom_site_fract_y
 _atom_site_fract_z
 _atom_site_occupancy
  Mn  Mn0  1  0.14753587  0.76014195  0.00114032  1
  Mn  Mn1  1  0.85246413  0.73985805  0.50114032  1
  Mn  Mn2  1  0.85246413  0.26014195  0.50114032  1
  Mn  Mn3  1  0.14753587  0.23985805  0.00114032  1
  Mn  Mn4  1  0.65995235  0.50000000  -0.00061153  1
  Mn  Mn5  1  0.34004765  0.00000000  0.49938847  1
  Co  Co6  1  0.66899982  0.00000000  0.22097267  1
  Co  Co7  1  0.33100018  0.50000000  0.72097267  1
  Co  Co8  1  0.34825369  0.50000000  0.32055730  1
  Co  Co9  1  0.65174631  0.00000000  0.82055730  1
  O  O10  1  0.82320217  0.25436135  0.10763775  1
  O  O11  1  0.17679783  0.24563865  0.60763775  1
  O  O12  1  0.17679783  0.75436135  0.60763775  1
  O  O13  1  0.82320217  0.74563865  0.10763775  1
  O  O14  1  0.53638477  0.21769353  0.37243013  1
  O  O15  1  0.46361523  0.28230647  0.87243013  1
  O  O16  1  0.46361523  0.71769353  0.87243013  1
  O  O17  1  0.53638477  0.78230647  0.37243013  1
  O  O18  1  0.31426530  0.00000000  0.10485293  1
  O  O19  1  0.68573470  0.50000000  0.60485293  1
  O  O20  1  0.32413447  0.50000000  0.10859656  1
  O  O21  1  0.67586553  0.00000000  0.60859656  1
  O  O22  1  0.01106366  0.00000000  0.39111273  1
  O  O23  1  -0.01106366  0.50000000  0.89111273  1
  O  O24  1  0.98144539  0.50000000  0.38400497  1
  O  O25  1  0.01855461  0.00000000  0.88400497  1
