# generated using pymatgen
data_Cs3AlGe2O7
_symmetry_space_group_name_H-M   'P 1'
_cell_length_a   9.89805641
_cell_length_b   9.89805641
_cell_length_c   7.65767467
_cell_angle_alpha   73.05655124
_cell_angle_beta   73.05655124
_cell_angle_gamma   121.53379437
_symmetry_Int_Tables_number   1
_chemical_formula_structural   Cs3AlGe2O7
_chemical_formula_sum   'Cs6 Al2 Ge4 O14'
_cell_volume   513.11414659
_cell_formula_units_Z   2
loop_
 _symmetry_equiv_pos_site_id
 _symmetry_equiv_pos_as_xyz
  1  'x, y, z'
loop_
 _atom_site_type_symbol
 _atom_site_label
 _atom_site_symmetry_multiplicity
 _atom_site_fract_x
 _atom_site_fract_y
 _atom_site_fract_z
 _atom_site_occupancy
  Cs  Cs0  1  0.59141289  0.98325049  0.73139297  1
  Cs  Cs1  1  0.01173193  0.98826807  0.75000000  1
  Cs  Cs2  1  0.98325049  0.59141289  0.23139297  1
  Cs  Cs3  1  0.98826807  0.01173193  0.25000000  1
  Cs  Cs4  1  0.01674951  0.40858711  0.76860703  1
  Cs  Cs5  1  0.40858711  0.01674951  0.26860703  1
  Al  Al6  1  0.44154706  0.55845294  0.75000000  1
  Al  Al7  1  0.55845294  0.44154706  0.25000000  1
  Ge  Ge8  1  0.76165631  0.56284192  0.76129794  1
  Ge  Ge9  1  0.43715808  0.23834369  0.73870206  1
  Ge  Ge10  1  0.56284192  0.76165631  0.26129794  1
  Ge  Ge11  1  0.23834369  0.43715808  0.23870206  1
  O  O12  1  0.65612247  0.66006980  0.73374835  1
  O  O13  1  0.66006980  0.65612247  0.23374835  1
  O  O14  1  0.52076622  0.27827165  0.47535149  1
  O  O15  1  0.33993020  0.34387753  0.76625165  1
  O  O16  1  0.00284741  0.27595284  0.43894650  1
  O  O17  1  0.47923378  0.72172835  0.52464851  1
  O  O18  1  0.27595284  0.00284741  0.93894650  1
  O  O19  1  0.27827165  0.52076622  0.97535149  1
  O  O20  1  0.35500552  0.64499448  0.25000000  1
  O  O21  1  0.34387753  0.33993020  0.26625165  1
  O  O22  1  0.72404716  -0.00284741  0.06105350  1
  O  O23  1  0.64499448  0.35500552  0.75000000  1
  O  O24  1  -0.00284741  0.72404716  0.56105350  1
  O  O25  1  0.72172835  0.47923378  0.02464851  1
