# generated using pymatgen
data_BaP2PbO7
_symmetry_space_group_name_H-M   'P 1'
_cell_length_a   5.63635310
_cell_length_b   9.12987411
_cell_length_c   13.46135443
_cell_angle_alpha   90.00000000
_cell_angle_beta   90.00000000
_cell_angle_gamma   90.00000000
_symmetry_Int_Tables_number   1
_chemical_formula_structural   BaP2PbO7
_chemical_formula_sum   'Ba4 P8 Pb4 O28'
_cell_volume   692.71045238
_cell_formula_units_Z   4
loop_
 _symmetry_equiv_pos_site_id
 _symmetry_equiv_pos_as_xyz
  1  'x, y, z'
loop_
 _atom_site_type_symbol
 _atom_site_label
 _atom_site_symmetry_multiplicity
 _atom_site_fract_x
 _atom_site_fract_y
 _atom_site_fract_z
 _atom_site_occupancy
  Ba  Ba0  1  0.75000000  0.15761793  0.26045241  1
  Ba  Ba1  1  0.25000000  0.84238207  0.73954759  1
  Ba  Ba2  1  0.75000000  0.65761793  0.23954759  1
  Ba  Ba3  1  0.25000000  0.34238207  0.76045241  1
  P  P4  1  0.75000000  0.28322597  0.96614731  1
  P  P5  1  0.25000000  0.71677403  0.03385269  1
  P  P6  1  0.75000000  0.78322597  0.53385269  1
  P  P7  1  0.25000000  0.21677403  0.46614731  1
  P  P8  1  0.75000000  0.04345250  0.82052567  1
  P  P9  1  0.25000000  0.95654750  0.17947433  1
  P  P10  1  0.75000000  0.54345250  0.67947433  1
  P  P11  1  0.25000000  0.45654750  0.32052567  1
  Pb  Pb12  1  0.25000000  0.36347898  0.08842172  1
  Pb  Pb13  1  0.75000000  0.63652102  0.91157828  1
  Pb  Pb14  1  0.25000000  0.86347898  0.41157828  1
  Pb  Pb15  1  0.75000000  0.13652102  0.58842172  1
  O  O16  1  0.97324612  0.35720414  0.92644840  1
  O  O17  1  0.47324612  0.64279586  0.07355160  1
  O  O18  1  0.52675388  0.85720414  0.57355160  1
  O  O19  1  0.02675388  0.14279586  0.42644840  1
  O  O20  1  0.02675388  0.64279586  0.07355160  1
  O  O21  1  0.52675388  0.35720414  0.92644840  1
  O  O22  1  0.47324612  0.14279586  0.42644840  1
  O  O23  1  0.97324612  0.85720414  0.57355160  1
  O  O24  1  0.75000000  0.27678724  0.07835612  1
  O  O25  1  0.25000000  0.72321276  0.92164388  1
  O  O26  1  0.75000000  0.77678724  0.42164388  1
  O  O27  1  0.25000000  0.22321276  0.57835612  1
  O  O28  1  0.75000000  0.11545861  0.92949772  1
  O  O29  1  0.25000000  0.88454139  0.07050228  1
  O  O30  1  0.75000000  0.61545861  0.57050228  1
  O  O31  1  0.25000000  0.38454139  0.42949772  1
  O  O32  1  0.75000000  0.87948966  0.83744345  1
  O  O33  1  0.25000000  0.12051034  0.16255655  1
  O  O34  1  0.75000000  0.37948966  0.66255655  1
  O  O35  1  0.25000000  0.62051034  0.33744345  1
  O  O36  1  0.52843927  0.09354450  0.76551209  1
  O  O37  1  0.02843927  0.90645550  0.23448791  1
  O  O38  1  0.97156073  0.59354450  0.73448791  1
  O  O39  1  0.47156073  0.40645550  0.26551209  1
  O  O40  1  0.47156073  0.90645550  0.23448791  1
  O  O41  1  0.97156073  0.09354450  0.76551209  1
  O  O42  1  0.02843927  0.40645550  0.26551209  1
  O  O43  1  0.52843927  0.59354450  0.73448791  1
