# generated using pymatgen
data_KBi6ClO9
_symmetry_space_group_name_H-M   'P 1'
_cell_length_a   14.85569360
_cell_length_b   14.85569360
_cell_length_c   14.85569360
_cell_angle_alpha   109.47122063
_cell_angle_beta   109.47122063
_cell_angle_gamma   109.47122063
_symmetry_Int_Tables_number   1
_chemical_formula_structural   KBi6ClO9
_chemical_formula_sum   'K8 Bi48 Cl8 O72'
_cell_volume   2523.81147016
_cell_formula_units_Z   8
loop_
 _symmetry_equiv_pos_site_id
 _symmetry_equiv_pos_as_xyz
  1  'x, y, z'
loop_
 _atom_site_type_symbol
 _atom_site_label
 _atom_site_symmetry_multiplicity
 _atom_site_fract_x
 _atom_site_fract_y
 _atom_site_fract_z
 _atom_site_occupancy
  K  K0  1  0.00000000  0.50000000  0.00000000  1
  K  K1  1  0.50000000  0.00000000  0.50000000  1
  K  K2  1  0.50000000  0.50000000  0.50000000  1
  K  K3  1  0.00000000  0.00000000  0.00000000  1
  K  K4  1  0.00000000  0.50000000  0.50000000  1
  K  K5  1  0.50000000  0.50000000  0.00000000  1
  K  K6  1  0.00000000  0.00000000  0.50000000  1
  K  K7  1  0.50000000  0.00000000  0.00000000  1
  Bi  Bi8  1  0.48497741  0.75000000  0.23497741  1
  Bi  Bi9  1  0.75000000  0.51502259  0.76502259  1
  Bi  Bi10  1  0.51502259  0.76502259  0.75000000  1
  Bi  Bi11  1  0.23497741  0.25000000  0.48497741  1
  Bi  Bi12  1  0.26776103  0.53552106  0.51776103  1
  Bi  Bi13  1  0.75000000  0.98223897  0.51776103  1
  Bi  Bi14  1  0.25000000  0.76502259  0.51502259  1
  Bi  Bi15  1  0.03552106  0.76776103  0.01776103  1
  Bi  Bi16  1  0.23497741  0.48497741  0.75000000  1
  Bi  Bi17  1  0.98497741  0.75000000  0.73497741  1
  Bi  Bi18  1  0.96447894  0.23223897  0.98223897  1
  Bi  Bi19  1  0.51776103  0.75000000  0.98223897  1
  Bi  Bi20  1  0.98223897  0.51776103  0.75000000  1
  Bi  Bi21  1  0.01502259  0.26502259  0.75000000  1
  Bi  Bi22  1  0.46447894  0.48223897  0.73223897  1
  Bi  Bi23  1  0.76776103  0.25000000  0.73223897  1
  Bi  Bi24  1  0.01776103  0.03552106  0.76776103  1
  Bi  Bi25  1  0.75000000  0.26776103  0.23223897  1
  Bi  Bi26  1  0.75000000  0.01502259  0.26502259  1
  Bi  Bi27  1  0.98223897  0.96447894  0.23223897  1
  Bi  Bi28  1  0.25000000  0.48497741  0.23497741  1
  Bi  Bi29  1  0.73223897  0.76776103  0.25000000  1
  Bi  Bi30  1  0.01776103  0.48223897  0.25000000  1
  Bi  Bi31  1  0.25000000  0.01776103  0.48223897  1
  Bi  Bi32  1  0.51776103  0.26776103  0.53552106  1
  Bi  Bi33  1  0.01502259  0.25000000  0.26502259  1
  Bi  Bi34  1  0.48223897  0.73223897  0.46447894  1
  Bi  Bi35  1  0.26776103  0.23223897  0.75000000  1
  Bi  Bi36  1  0.51502259  0.25000000  0.76502259  1
  Bi  Bi37  1  0.76502259  0.75000000  0.51502259  1
  Bi  Bi38  1  0.48223897  0.25000000  0.01776103  1
  Bi  Bi39  1  0.26502259  0.01502259  0.25000000  1
  Bi  Bi40  1  0.73497741  0.98497741  0.75000000  1
  Bi  Bi41  1  0.23223897  0.98223897  0.96447894  1
  Bi  Bi42  1  0.76776103  0.01776103  0.03552106  1
  Bi  Bi43  1  0.98497741  0.73497741  0.25000000  1
  Bi  Bi44  1  0.53552106  0.51776103  0.26776103  1
  Bi  Bi45  1  0.75000000  0.73497741  0.98497741  1
  Bi  Bi46  1  0.26502259  0.75000000  0.01502259  1
  Bi  Bi47  1  0.76502259  0.51502259  0.25000000  1
  Bi  Bi48  1  0.25000000  0.73223897  0.76776103  1
  Bi  Bi49  1  0.73497741  0.25000000  0.98497741  1
  Bi  Bi50  1  0.23223897  0.75000000  0.26776103  1
  Bi  Bi51  1  0.73223897  0.46447894  0.48223897  1
  Bi  Bi52  1  0.48497741  0.23497741  0.25000000  1
  Bi  Bi53  1  0.25000000  0.98497741  0.73497741  1
  Bi  Bi54  1  0.75000000  0.23497741  0.48497741  1
  Bi  Bi55  1  0.25000000  0.26502259  0.01502259  1
  Cl  Cl56  1  0.25000000  0.25000000  0.25000000  1
  Cl  Cl57  1  0.50000000  0.00000000  0.25000000  1
  Cl  Cl58  1  0.00000000  0.25000000  0.50000000  1
  Cl  Cl59  1  0.75000000  0.75000000  0.75000000  1
  Cl  Cl60  1  0.75000000  0.50000000  0.00000000  1
  Cl  Cl61  1  0.00000000  0.75000000  0.50000000  1
  Cl  Cl62  1  0.25000000  0.50000000  0.00000000  1
  Cl  Cl63  1  0.50000000  0.00000000  0.75000000  1
  O  O64  1  0.89460489  0.78920878  0.14460489  1
  O  O65  1  0.28920878  0.39460489  0.64460489  1
  O  O66  1  0.28692207  0.93700449  0.34736736  1
  O  O67  1  0.15263264  0.56299551  0.21307793  1
  O  O68  1  0.08963713  0.65008242  0.93700449  1
  O  O69  1  0.93955471  0.15263264  0.08963713  1
  O  O70  1  0.91036287  0.06044529  0.84736736  1
  O  O71  1  0.65263264  0.43955471  0.58963713  1
  O  O72  1  0.65263264  0.71307793  0.06299551  1
  O  O73  1  0.64460489  0.28920878  0.39460489  1
  O  O74  1  0.71307793  0.06299551  0.65263264  1
  O  O75  1  0.06044529  0.84736736  0.91036287  1
  O  O76  1  0.56299551  0.21307793  0.15263264  1
  O  O77  1  0.84991758  0.93955471  0.28692207  1
  O  O78  1  0.35539511  0.71079122  0.60539511  1
  O  O79  1  0.14460489  0.89460489  0.78920878  1
  O  O80  1  0.43955471  0.34991758  0.78692207  1
  O  O81  1  0.58963713  0.43700449  0.15008242  1
  O  O82  1  0.15008242  0.58963713  0.43700449  1
  O  O83  1  0.78692207  0.43955471  0.34991758  1
  O  O84  1  0.06044529  0.71307793  0.15008242  1
  O  O85  1  0.91036287  0.34991758  0.06299551  1
  O  O86  1  0.08963713  0.93955471  0.15263264  1
  O  O87  1  0.93700449  0.08963713  0.65008242  1
  O  O88  1  0.34991758  0.78692207  0.43955471  1
  O  O89  1  0.58963713  0.65263264  0.43955471  1
  O  O90  1  0.43700449  0.78692207  0.84736736  1
  O  O91  1  0.71307793  0.15008242  0.06044529  1
  O  O92  1  0.06299551  0.65263264  0.71307793  1
  O  O93  1  0.85539511  0.25000000  0.64460489  1
  O  O94  1  0.43955471  0.58963713  0.65263264  1
  O  O95  1  0.15263264  0.08963713  0.93955471  1
  O  O96  1  0.71079122  0.60539511  0.35539511  1
  O  O97  1  0.60539511  0.35539511  0.71079122  1
  O  O98  1  0.34736736  0.28692207  0.93700449  1
  O  O99  1  0.39460489  0.25000000  0.10539511  1
  O  O100  1  0.21307793  0.56044529  0.65008242  1
  O  O101  1  0.93700449  0.34736736  0.28692207  1
  O  O102  1  0.28692207  0.84991758  0.93955471  1
  O  O103  1  0.21307793  0.15263264  0.56299551  1
  O  O104  1  0.78692207  0.84736736  0.43700449  1
  O  O105  1  0.15008242  0.06044529  0.71307793  1
  O  O106  1  0.34736736  0.56044529  0.41036287  1
  O  O107  1  0.64460489  0.85539511  0.25000000  1
  O  O108  1  0.41036287  0.56299551  0.84991758  1
  O  O109  1  0.56044529  0.41036287  0.34736736  1
  O  O110  1  0.84991758  0.41036287  0.56299551  1
  O  O111  1  0.10539511  0.39460489  0.25000000  1
  O  O112  1  0.39460489  0.64460489  0.28920878  1
  O  O113  1  0.65008242  0.21307793  0.56044529  1
  O  O114  1  0.85539511  0.10539511  0.21079122  1
  O  O115  1  0.60539511  0.75000000  0.89460489  1
  O  O116  1  0.78920878  0.14460489  0.89460489  1
  O  O117  1  0.41036287  0.34736736  0.56044529  1
  O  O118  1  0.75000000  0.89460489  0.60539511  1
  O  O119  1  0.34991758  0.06299551  0.91036287  1
  O  O120  1  0.21079122  0.85539511  0.10539511  1
  O  O121  1  0.14460489  0.75000000  0.35539511  1
  O  O122  1  0.25000000  0.10539511  0.39460489  1
  O  O123  1  0.35539511  0.14460489  0.75000000  1
  O  O124  1  0.06299551  0.91036287  0.34991758  1
  O  O125  1  0.93955471  0.28692207  0.84991758  1
  O  O126  1  0.65008242  0.93700449  0.08963713  1
  O  O127  1  0.56299551  0.84991758  0.41036287  1
  O  O128  1  0.84736736  0.43700449  0.78692207  1
  O  O129  1  0.56044529  0.65008242  0.21307793  1
  O  O130  1  0.89460489  0.60539511  0.75000000  1
  O  O131  1  0.43700449  0.15008242  0.58963713  1
  O  O132  1  0.75000000  0.35539511  0.14460489  1
  O  O133  1  0.84736736  0.91036287  0.06044529  1
  O  O134  1  0.25000000  0.64460489  0.85539511  1
  O  O135  1  0.10539511  0.21079122  0.85539511  1
