# generated using pymatgen
data_Na17Al5O16
_symmetry_space_group_name_H-M   'P 1'
_cell_length_a   16.64815031
_cell_length_b   16.64815031
_cell_length_c   5.93814288
_cell_angle_alpha   84.94579794
_cell_angle_beta   84.94579794
_cell_angle_gamma   159.49230367
_symmetry_Int_Tables_number   1
_chemical_formula_structural   Na17Al5O16
_chemical_formula_sum   'Na17 Al5 O16'
_cell_volume   501.02205746
_cell_formula_units_Z   1
loop_
 _symmetry_equiv_pos_site_id
 _symmetry_equiv_pos_as_xyz
  1  'x, y, z'
loop_
 _atom_site_type_symbol
 _atom_site_label
 _atom_site_symmetry_multiplicity
 _atom_site_fract_x
 _atom_site_fract_y
 _atom_site_fract_z
 _atom_site_occupancy
  Na  Na0  1  0.32913105  0.78818357  0.05165384  1
  Na  Na1  1  0.08682950  0.90984618  0.19261485  1
  Na  Na2  1  0.78818357  0.32913105  0.05165384  1
  Na  Na3  1  0.39630114  0.67180787  0.05447466  1
  Na  Na4  1  0.50653187  0.41489445  0.61236890  1
  Na  Na5  1  0.90984618  0.08682950  0.19261485  1
  Na  Na6  1  0.82643881  0.17893631  0.46454879  1
  Na  Na7  1  0.32338155  0.59771266  0.58640292  1
  Na  Na8  1  0.59771266  0.32338155  0.58640292  1
  Na  Na9  1  0.57979404  0.48754904  0.07667720  1
  Na  Na10  1  0.17893631  0.82643881  0.46454879  1
  Na  Na11  1  0.67062431  0.22153623  0.62562949  1
  Na  Na12  1  0.67180787  0.39630114  0.05447466  1
  Na  Na13  1  0.48754904  0.57979404  0.07667720  1
  Na  Na14  1  0.41489445  0.50653187  0.61236890  1
  Na  Na15  1  0.22153623  0.67062431  0.62562949  1
  Na  Na16  1  0.99823002  0.99823002  0.48869945  1
  Al  Al17  1  0.81683049  0.17751545  0.99241064  1
  Al  Al18  1  0.17751545  0.81683049  0.99241064  1
  Al  Al19  1  0.90648911  0.08687710  0.67431324  1
  Al  Al20  1  0.08687710  0.90648911  0.67431324  1
  Al  Al21  1  0.99676014  0.99676014  0.00517906  1
  O  O22  1  0.28313884  0.28313884  0.02002895  1
  O  O23  1  0.78834582  0.22132607  0.76911635  1
  O  O24  1  0.12729274  0.86780820  0.87628619  1
  O  O25  1  0.95323246  0.03992525  0.82629821  1
  O  O26  1  0.37497177  0.18889424  0.37508950  1
  O  O27  1  0.03992525  0.95323246  0.82629821  1
  O  O28  1  0.71119060  0.71119060  0.30425732  1
  O  O29  1  0.89544987  0.52378453  0.29071199  1
  O  O30  1  0.09481916  0.46578965  0.01540625  1
  O  O31  1  0.52378453  0.89544987  0.29071199  1
  O  O32  1  0.18889424  0.37497177  0.37508950  1
  O  O33  1  0.61828214  0.80454480  0.65791608  1
  O  O34  1  0.22132607  0.78834582  0.76911635  1
  O  O35  1  0.80454480  0.61828214  0.65791608  1
  O  O36  1  0.86780820  0.12729274  0.87628619  1
  O  O37  1  0.46578965  0.09481916  0.01540625  1
