# generated using pymatgen
data_KP4N7
_symmetry_space_group_name_H-M   'P 1'
_cell_length_a   4.66341292
_cell_length_b   9.84309957
_cell_length_c   12.24682325
_cell_angle_alpha   90.00000000
_cell_angle_beta   90.00000000
_cell_angle_gamma   90.00000000
_symmetry_Int_Tables_number   1
_chemical_formula_structural   KP4N7
_chemical_formula_sum   'K4 P16 N28'
_cell_volume   562.15904135
_cell_formula_units_Z   4
loop_
 _symmetry_equiv_pos_site_id
 _symmetry_equiv_pos_as_xyz
  1  'x, y, z'
loop_
 _atom_site_type_symbol
 _atom_site_label
 _atom_site_symmetry_multiplicity
 _atom_site_fract_x
 _atom_site_fract_y
 _atom_site_fract_z
 _atom_site_occupancy
  K  K0  1  0.26008075  0.15110804  0.75000000  1
  K  K1  1  0.76008075  0.34889196  0.25000000  1
  K  K2  1  0.73991925  0.84889196  0.25000000  1
  K  K3  1  0.23991925  0.65110804  0.75000000  1
  P  P4  1  0.78849160  0.41165056  0.86922486  1
  P  P5  1  0.28849160  0.08834944  0.13077514  1
  P  P6  1  0.21150840  0.58834944  0.36922486  1
  P  P7  1  0.71150840  0.91165056  0.63077514  1
  P  P8  1  0.21150840  0.58834944  0.13077514  1
  P  P9  1  0.71150840  0.91165056  0.86922486  1
  P  P10  1  0.78849160  0.41165056  0.63077514  1
  P  P11  1  0.28849160  0.08834944  0.36922486  1
  P  P12  1  0.78122525  0.15667482  -0.00038270  1
  P  P13  1  0.28122525  0.34332518  0.00038270  1
  P  P14  1  0.21877475  0.84332518  0.49961730  1
  P  P15  1  0.71877475  0.65667482  0.50038270  1
  P  P16  1  0.21877475  0.84332518  0.00038270  1
  P  P17  1  0.71877475  0.65667482  -0.00038270  1
  P  P18  1  0.78122525  0.15667482  0.50038270  1
  P  P19  1  0.28122525  0.34332518  0.49961730  1
  N  N20  1  0.70322989  0.36722109  0.75000000  1
  N  N21  1  0.20322989  0.13277891  0.25000000  1
  N  N22  1  0.29677011  0.63277891  0.25000000  1
  N  N23  1  0.79677011  0.86722109  0.75000000  1
  N  N24  1  0.12057679  0.38734060  0.89336370  1
  N  N25  1  0.62057679  0.11265940  0.10663630  1
  N  N26  1  0.87942321  0.61265940  0.39336370  1
  N  N27  1  0.37942321  0.88734060  0.60663630  1
  N  N28  1  0.87942321  0.61265940  0.10663630  1
  N  N29  1  0.37942321  0.88734060  0.89336370  1
  N  N30  1  0.12057679  0.38734060  0.60663630  1
  N  N31  1  0.62057679  0.11265940  0.39336370  1
  N  N32  1  0.81796121  0.06147012  0.89705391  1
  N  N33  1  0.31796121  0.43852988  0.10294609  1
  N  N34  1  0.18203879  0.93852988  0.39705391  1
  N  N35  1  0.68203879  0.56147012  0.60294609  1
  N  N36  1  0.18203879  0.93852988  0.10294609  1
  N  N37  1  0.68203879  0.56147012  0.89705391  1
  N  N38  1  0.81796121  0.06147012  0.60294609  1
  N  N39  1  0.31796121  0.43852988  0.39705391  1
  N  N40  1  0.61852771  0.30113865  0.95762080  1
  N  N41  1  0.11852771  0.19886135  0.04237920  1
  N  N42  1  0.38147229  0.69886135  0.45762080  1
  N  N43  1  0.88147229  0.80113865  0.54237920  1
  N  N44  1  0.38147229  0.69886135  0.04237920  1
  N  N45  1  0.88147229  0.80113865  0.95762080  1
  N  N46  1  0.61852771  0.30113865  0.54237920  1
  N  N47  1  0.11852771  0.19886135  0.45762080  1
