# generated using pymatgen
data_Na7SnS3(O4F)3
_symmetry_space_group_name_H-M   'P 1'
_cell_length_a   10.71789652
_cell_length_b   10.71789652
_cell_length_c   6.55077578
_cell_angle_alpha   90.00000000
_cell_angle_beta   90.00000000
_cell_angle_gamma   119.99999904
_symmetry_Int_Tables_number   1
_chemical_formula_structural   Na7SnS3(O4F)3
_chemical_formula_sum   'Na14 Sn2 S6 O24 F6'
_cell_volume   651.69215078
_cell_formula_units_Z   2
loop_
 _symmetry_equiv_pos_site_id
 _symmetry_equiv_pos_as_xyz
  1  'x, y, z'
loop_
 _atom_site_type_symbol
 _atom_site_label
 _atom_site_symmetry_multiplicity
 _atom_site_fract_x
 _atom_site_fract_y
 _atom_site_fract_z
 _atom_site_occupancy
  Na  Na0  1  0.82724788  0.65449576  0.51314210  1
  Na  Na1  1  0.46960786  0.93921571  0.72655538  1
  Na  Na2  1  0.53039214  0.46960786  0.22655538  1
  Na  Na3  1  0.82724788  0.17275212  0.51314210  1
  Na  Na4  1  0.17275212  0.34550424  0.01314210  1
  Na  Na5  1  0.06078429  0.53039214  0.72655538  1
  Na  Na6  1  0.53039214  0.06078429  0.22655538  1
  Na  Na7  1  0.93921571  0.46960786  0.22655538  1
  Na  Na8  1  0.34550424  0.17275212  0.51314210  1
  Na  Na9  1  0.00000000  -0.00000000  0.30378230  1
  Na  Na10  1  0.17275212  0.82724788  0.01314210  1
  Na  Na11  1  0.65449576  0.82724788  0.01314210  1
  Na  Na12  1  0.46960786  0.53039214  0.72655538  1
  Na  Na13  1  0.00000000  -0.00000000  0.80378230  1
  Sn  Sn14  1  0.66666700  0.33333300  0.75063130  1
  Sn  Sn15  1  0.33333300  0.66666700  0.25063130  1
  S  S16  1  0.83096376  0.16903624  0.99963197  1
  S  S17  1  0.66192852  0.83096376  0.49963197  1
  S  S18  1  0.16903624  0.33807148  0.49963197  1
  S  S19  1  0.83096376  0.66192852  0.99963197  1
  S  S20  1  0.33807148  0.16903624  0.99963197  1
  S  S21  1  0.16903624  0.83096376  0.49963197  1
  O  O22  1  0.90760587  0.81521174  0.06210223  1
  O  O23  1  0.09239413  0.18478826  0.56210223  1
  O  O24  1  0.29567311  0.36641735  0.37491585  1
  O  O25  1  0.07074424  0.36641735  0.37491585  1
  O  O26  1  0.09239413  0.90760587  0.56210223  1
  O  O27  1  0.92925576  0.63358265  0.87491585  1
  O  O28  1  0.43365799  0.21682849  0.17902783  1
  O  O29  1  0.36641735  0.29567311  0.87491585  1
  O  O30  1  0.21682849  0.43365799  0.67902783  1
  O  O31  1  0.63358265  0.92925576  0.37491585  1
  O  O32  1  0.78317151  0.56634201  0.17902783  1
  O  O33  1  0.18478826  0.09239413  0.06210223  1
  O  O34  1  0.70432689  0.07074424  0.87491585  1
  O  O35  1  0.21682849  0.78317151  0.67902783  1
  O  O36  1  0.63358265  0.70432689  0.37491585  1
  O  O37  1  0.92925576  0.29567311  0.87491585  1
  O  O38  1  0.56634201  0.78317151  0.67902783  1
  O  O39  1  0.36641735  0.07074424  0.87491585  1
  O  O40  1  0.90760587  0.09239413  0.06210223  1
  O  O41  1  0.70432689  0.63358265  0.87491585  1
  O  O42  1  0.29567311  0.92925576  0.37491585  1
  O  O43  1  0.81521174  0.90760587  0.56210223  1
  O  O44  1  0.78317151  0.21682849  0.17902783  1
  O  O45  1  0.07074424  0.70432689  0.37491585  1
  F  F46  1  0.42050683  0.84101366  0.04733826  1
  F  F47  1  0.42050683  0.57949317  0.04733826  1
  F  F48  1  0.57949317  0.15898634  0.54733826  1
  F  F49  1  0.15898634  0.57949317  0.04733826  1
  F  F50  1  0.57949317  0.42050683  0.54733826  1
  F  F51  1  0.84101366  0.42050683  0.54733826  1
