# generated using pymatgen
data_Ba2CoSe2(ClO3)2
_symmetry_space_group_name_H-M   'P 1'
_cell_length_a   8.65239831
_cell_length_b   8.65239831
_cell_length_c   13.67340265
_cell_angle_alpha   76.24608600
_cell_angle_beta   76.24608600
_cell_angle_gamma   104.39227436
_symmetry_Int_Tables_number   1
_chemical_formula_structural   Ba2CoSe2(ClO3)2
_chemical_formula_sum   'Ba8 Co4 Se8 Cl8 O24'
_cell_volume   913.89585439
_cell_formula_units_Z   4
loop_
 _symmetry_equiv_pos_site_id
 _symmetry_equiv_pos_as_xyz
  1  'x, y, z'
loop_
 _atom_site_type_symbol
 _atom_site_label
 _atom_site_symmetry_multiplicity
 _atom_site_fract_x
 _atom_site_fract_y
 _atom_site_fract_z
 _atom_site_occupancy
  Ba  Ba0  1  0.23946988  0.52875404  0.73177360  1
  Ba  Ba1  1  0.73946988  0.02875404  0.73177360  1
  Ba  Ba2  1  0.26052764  0.97124347  0.26822640  1
  Ba  Ba3  1  0.76052764  0.47124347  0.26822640  1
  Ba  Ba4  1  0.22124347  0.01052764  0.76822640  1
  Ba  Ba5  1  0.72124347  0.51052764  0.76822640  1
  Ba  Ba6  1  0.77875404  0.98946988  0.23177360  1
  Ba  Ba7  1  0.27875404  0.48946988  0.23177360  1
  Co  Co8  1  0.25000638  0.25000638  0.00000000  1
  Co  Co9  1  0.50000638  0.00000638  0.50000000  1
  Co  Co10  1  0.75000638  0.75000638  0.00000000  1
  Co  Co11  1  0.00000638  0.50000638  0.50000000  1
  Se  Se12  1  0.40505656  0.66123633  0.43368988  1
  Se  Se13  1  0.90505656  0.16123633  0.43368988  1
  Se  Se14  1  0.09492622  0.83874644  0.56631012  1
  Se  Se15  1  0.59492622  0.33874644  0.56631012  1
  Se  Se16  1  0.58874644  0.34492622  0.06631012  1
  Se  Se17  1  0.08874644  0.84492622  0.06631012  1
  Se  Se18  1  0.41123633  0.65505656  0.93368988  1
  Se  Se19  1  0.91123633  0.15505656  0.93368988  1
  Cl  Cl20  1  0.96909037  0.63631230  0.89459618  1
  Cl  Cl21  1  0.46909037  0.13631230  0.89459618  1
  Cl  Cl22  1  0.53090848  0.86368655  0.10540382  1
  Cl  Cl23  1  0.03090848  0.36368655  0.10540382  1
  Cl  Cl24  1  0.61368655  0.78090848  0.60540382  1
  Cl  Cl25  1  0.11368655  0.28090848  0.60540382  1
  Cl  Cl26  1  0.38631230  0.21909037  0.39459618  1
  Cl  Cl27  1  0.88631230  0.71909037  0.39459618  1
  O  O28  1  0.38642073  0.78388566  0.82969808  1
  O  O29  1  0.88642073  0.28388566  0.82969808  1
  O  O30  1  0.61358373  0.21611881  0.17030192  1
  O  O31  1  0.11358373  0.71611881  0.17030192  1
  O  O32  1  0.53388566  0.63642073  0.32969808  1
  O  O33  1  0.03388566  0.13642073  0.32969808  1
  O  O34  1  0.96611881  0.86358373  0.67030192  1
  O  O35  1  0.46611881  0.36358373  0.67030192  1
  O  O36  1  0.11581844  0.02622873  0.10336227  1
  O  O37  1  0.61581844  0.52622873  0.10336227  1
  O  O38  1  0.46917971  0.87959100  0.39663773  1
  O  O39  1  0.96917971  0.37959100  0.39663773  1
  O  O40  1  0.22377624  0.63418420  0.39664014  1
  O  O41  1  0.72377624  0.13418420  0.39664014  1
  O  O42  1  0.03082534  0.62041638  0.60335986  1
  O  O43  1  0.53082534  0.12041638  0.60335986  1
  O  O44  1  0.38418420  0.47377624  0.89664014  1
  O  O45  1  0.88418420  0.97377624  0.89664014  1
  O  O46  1  0.37041638  0.28082534  0.10335986  1
  O  O47  1  0.87041638  0.78082534  0.10335986  1
  O  O48  1  0.27622873  0.86581844  0.60336227  1
  O  O49  1  0.77622873  0.36581844  0.60336227  1
  O  O50  1  0.12959100  0.21917971  0.89663773  1
  O  O51  1  0.62959100  0.71917971  0.89663773  1
