# generated using pymatgen
data_Na6Mo11O36
_symmetry_space_group_name_H-M   'P 1'
_cell_length_a   9.82751140
_cell_length_b   9.82751140
_cell_length_c   22.85616602
_cell_angle_alpha   89.91208759
_cell_angle_beta   89.91208759
_cell_angle_gamma   135.67002118
_symmetry_Int_Tables_number   1
_chemical_formula_structural   Na6Mo11O36
_chemical_formula_sum   'Na12 Mo22 O72'
_cell_volume   1542.52912781
_cell_formula_units_Z   2
loop_
 _symmetry_equiv_pos_site_id
 _symmetry_equiv_pos_as_xyz
  1  'x, y, z'
loop_
 _atom_site_type_symbol
 _atom_site_label
 _atom_site_symmetry_multiplicity
 _atom_site_fract_x
 _atom_site_fract_y
 _atom_site_fract_z
 _atom_site_occupancy
  Na  Na0  1  0.01921100  0.51413100  0.17037600  1
  Na  Na1  1  0.48646200  0.48396200  0.58850700  1
  Na  Na2  1  0.50000000  0.00000000  0.50000000  1
  Na  Na3  1  0.50302200  0.49697800  0.75000000  1
  Na  Na4  1  0.48586900  0.98078900  0.32962400  1
  Na  Na5  1  0.51353800  0.51603800  0.41149300  1
  Na  Na6  1  0.51413100  0.01921100  0.67037600  1
  Na  Na7  1  0.98078900  0.48586900  0.82962400  1
  Na  Na8  1  0.51603800  0.51353800  0.91149300  1
  Na  Na9  1  0.00000000  0.50000000  0.00000000  1
  Na  Na10  1  0.48396200  0.48646200  0.08850700  1
  Na  Na11  1  0.49697800  0.50302200  0.25000000  1
  Mo  Mo12  1  0.87305200  0.56091200  0.67662900  1
  Mo  Mo13  1  0.94260000  0.13374000  0.08511900  1
  Mo  Mo14  1  0.45200200  0.11602600  0.17071600  1
  Mo  Mo15  1  0.45082500  0.13956300  0.00178700  1
  Mo  Mo16  1  0.86626000  0.05740000  0.41488100  1
  Mo  Mo17  1  0.86043700  0.54917500  0.49821300  1
  Mo  Mo18  1  0.13956300  0.45082500  0.50178700  1
  Mo  Mo19  1  0.13374000  0.94260000  0.58511900  1
  Mo  Mo20  1  0.04172300  0.85999500  0.08354800  1
  Mo  Mo21  1  0.93049300  0.06950700  0.75000000  1
  Mo  Mo22  1  0.11602600  0.45200200  0.67071600  1
  Mo  Mo23  1  0.06950700  0.93049300  0.25000000  1
  Mo  Mo24  1  0.88397400  0.54799800  0.32928400  1
  Mo  Mo25  1  0.54799800  0.88397400  0.82928400  1
  Mo  Mo26  1  0.95827700  0.14000500  0.91645200  1
  Mo  Mo27  1  0.12694800  0.43908800  0.32337100  1
  Mo  Mo28  1  0.54917500  0.86043700  0.99821300  1
  Mo  Mo29  1  0.14000500  0.95827700  0.41645200  1
  Mo  Mo30  1  0.56091200  0.87305200  0.17662900  1
  Mo  Mo31  1  0.05740000  0.86626000  0.91488100  1
  Mo  Mo32  1  0.85999500  0.04172300  0.58354800  1
  Mo  Mo33  1  0.43908800  0.12694800  0.82337100  1
  O  O34  1  0.87088700  0.06219900  0.99832500  1
  O  O35  1  0.48425200  0.66579800  0.83448800  1
  O  O36  1  0.19357200  0.17228700  0.25674300  1
  O  O37  1  0.94060100  0.14645100  0.33887500  1
  O  O38  1  0.63256200  0.46357800  0.49721000  1
  O  O39  1  0.10256500  0.42817200  0.24773600  1
  O  O40  1  0.36523500  0.03775700  0.41804400  1
  O  O41  1  0.80790500  0.33510700  0.49890200  1
  O  O42  1  0.15015300  0.17051400  0.08397500  1
  O  O43  1  0.05951500  0.36249300  0.42327800  1
  O  O44  1  0.03775700  0.36523500  0.91804400  1
  O  O45  1  0.83118900  0.35053100  0.65733300  1
  O  O46  1  0.63652400  0.96159600  0.75409000  1
  O  O47  1  0.35775200  0.05380500  0.08240700  1
  O  O48  1  0.36249300  0.05951500  0.92327800  1
  O  O49  1  0.92686800  0.12129500  0.66505000  1
  O  O50  1  0.82948600  0.84984700  0.41602500  1
  O  O51  1  0.42817200  0.10256500  0.74773600  1
  O  O52  1  0.82771300  0.80642800  0.24325700  1
  O  O53  1  0.68182400  0.19559000  0.16969200  1
  O  O54  1  0.36694000  0.04099500  0.58096200  1
  O  O55  1  0.64946900  0.16881100  0.84266700  1
  O  O56  1  0.12129500  0.92686800  0.16505000  1
  O  O57  1  0.82221900  0.79636600  0.08218800  1
  O  O58  1  0.53642200  0.36743800  0.00279000  1
  O  O59  1  0.95900500  0.63306000  0.91903800  1
  O  O60  1  0.51574800  0.33420200  0.16551200  1
  O  O61  1  0.96159600  0.63652400  0.25409000  1
  O  O62  1  0.64224800  0.94619500  0.91759300  1
  O  O63  1  0.47514300  0.64542400  0.16569400  1
  O  O64  1  0.05939900  0.85354900  0.66112500  1
  O  O65  1  0.63476500  0.96224300  0.58195600  1
  O  O66  1  0.89743500  0.57182800  0.75226400  1
  O  O67  1  0.96224300  0.63476500  0.08195600  1
  O  O68  1  0.04099500  0.36694000  0.08096200  1
  O  O69  1  0.46357800  0.63256200  0.99721000  1
  O  O70  1  0.17051400  0.15015300  0.58397500  1
  O  O71  1  0.80642800  0.82771300  0.74325700  1
  O  O72  1  0.35053100  0.83118900  0.15733300  1
  O  O73  1  0.93780100  0.12911300  0.50167500  1
  O  O74  1  0.87870500  0.07313200  0.83495000  1
  O  O75  1  0.33420200  0.51574800  0.66551200  1
  O  O76  1  0.17228700  0.19357200  0.75674300  1
  O  O77  1  0.33510700  0.80790500  0.99890200  1
  O  O78  1  0.19559000  0.68182400  0.66969200  1
  O  O79  1  0.57182800  0.89743500  0.25226400  1
  O  O80  1  0.36347600  0.03840400  0.24591000  1
  O  O81  1  0.35457600  0.52485700  0.33430600  1
  O  O82  1  0.94619500  0.64224800  0.41759300  1
  O  O83  1  0.16881100  0.64946900  0.34266700  1
  O  O84  1  0.66579800  0.48425200  0.33448800  1
  O  O85  1  0.84984700  0.82948600  0.91602500  1
  O  O86  1  0.79636600  0.82221900  0.58218800  1
  O  O87  1  0.05380500  0.35775200  0.58240700  1
  O  O88  1  0.85354900  0.05939900  0.16112500  1
  O  O89  1  0.06219900  0.87088700  0.49832500  1
  O  O90  1  0.20363400  0.17778100  0.41781200  1
  O  O91  1  0.80441000  0.31817600  0.33030800  1
  O  O92  1  0.07313200  0.87870500  0.33495000  1
  O  O93  1  0.14645100  0.94060100  0.83887500  1
  O  O94  1  0.19209500  0.66489300  0.50109800  1
  O  O95  1  0.64542400  0.47514300  0.66569400  1
  O  O96  1  0.36743800  0.53642200  0.50279000  1
  O  O97  1  0.94048500  0.63750700  0.57672200  1
  O  O98  1  0.63306000  0.95900500  0.41903800  1
  O  O99  1  0.12911300  0.93780100  0.00167500  1
  O  O100  1  0.66489300  0.19209500  0.00109800  1
  O  O101  1  0.03840400  0.36347600  0.74591000  1
  O  O102  1  0.52485700  0.35457600  0.83430600  1
  O  O103  1  0.63750700  0.94048500  0.07672200  1
  O  O104  1  0.17778100  0.20363400  0.91781200  1
  O  O105  1  0.31817600  0.80441000  0.83030800  1
