# generated using pymatgen
data_InGaSe3
_symmetry_space_group_name_H-M   'P 1'
_cell_length_a   7.05857974
_cell_length_b   7.05947248
_cell_length_c   18.97877713
_cell_angle_alpha   90.00022760
_cell_angle_beta   89.99945352
_cell_angle_gamma   119.92912925
_symmetry_Int_Tables_number   1
_chemical_formula_structural   InGaSe3
_chemical_formula_sum   'In6 Ga6 Se18'
_cell_volume   819.59280468
_cell_formula_units_Z   6
loop_
 _symmetry_equiv_pos_site_id
 _symmetry_equiv_pos_as_xyz
  1  'x, y, z'
loop_
 _atom_site_type_symbol
 _atom_site_label
 _atom_site_symmetry_multiplicity
 _atom_site_fract_x
 _atom_site_fract_y
 _atom_site_fract_z
 _atom_site_occupancy
  In  In0  1  0.32900074  0.32865178  0.00355755  1
  In  In1  1  0.00171858  0.32950883  0.17044221  1
  In  In2  1  0.32860607  -0.00091900  0.83694276  1
  In  In3  1  0.67136345  0.00090330  0.33693057  1
  In  In4  1  -0.00172239  0.67045485  0.67044910  1
  In  In5  1  0.67101803  0.67135032  0.50356797  1
  Ga  Ga6  1  0.66586861  0.68211586  0.14134791  1
  Ga  Ga7  1  0.98352853  0.66511174  0.30821581  1
  Ga  Ga8  1  0.68184427  0.01640507  0.97501022  1
  Ga  Ga9  1  0.31815538  0.98359202  0.47501708  1
  Ga  Ga10  1  0.01646193  0.33492542  0.80826194  1
  Ga  Ga11  1  0.33413060  0.31788796  0.64136271  1
  Se  Se12  1  0.36431751  0.31705028  0.15336796  1
  Se  Se13  1  0.04655225  0.36298144  0.32043054  1
  Se  Se14  1  0.31663638  0.95348546  0.98676403  1
  Se  Se15  1  0.68337827  0.04651674  0.48677404  1
  Se  Se16  1  0.95341835  0.63702247  0.82045155  1
  Se  Se17  1  0.63569284  0.68296915  0.65338531  1
  Se  Se18  1  0.97011001  0.34966122  0.02156274  1
  Se  Se19  1  0.62194804  0.97146007  0.18790497  1
  Se  Se20  1  0.34974714  0.37888852  0.85460222  1
  Se  Se21  1  0.65023012  0.62109653  0.35459731  1
  Se  Se22  1  0.37806845  0.02853368  0.68790193  1
  Se  Se23  1  0.02990112  0.65029864  0.52154576  1
  Se  Se24  1  0.00891515  0.71155802  0.18002165  1
  Se  Se25  1  0.29645729  0.00801055  0.34666048  1
  Se  Se26  1  0.71160622  0.70258497  0.01311242  1
  Se  Se27  1  0.28839870  0.29742594  0.51311631  1
  Se  Se28  1  0.70354056  0.99201418  0.84665488  1
  Se  Se29  1  0.99110780  0.28845402  0.68004408  1
