# generated using pymatgen
data_BaGa2(GeO4)2
_symmetry_space_group_name_H-M   'P 1'
_cell_length_a   8.80707323
_cell_length_b   9.36901199
_cell_length_c   9.97007750
_cell_angle_alpha   90.00000000
_cell_angle_beta   90.00000000
_cell_angle_gamma   90.38073811
_symmetry_Int_Tables_number   1
_chemical_formula_structural   BaGa2(GeO4)2
_chemical_formula_sum   'Ba4 Ga8 Ge8 O32'
_cell_volume   822.64857088
_cell_formula_units_Z   4
loop_
 _symmetry_equiv_pos_site_id
 _symmetry_equiv_pos_as_xyz
  1  'x, y, z'
loop_
 _atom_site_type_symbol
 _atom_site_label
 _atom_site_symmetry_multiplicity
 _atom_site_fract_x
 _atom_site_fract_y
 _atom_site_fract_z
 _atom_site_occupancy
  Ba  Ba0  1  0.25006482  0.89112467  0.41276880  1
  Ba  Ba1  1  0.74993518  0.60887533  0.91276880  1
  Ba  Ba2  1  0.74993518  0.10887633  0.58723120  1
  Ba  Ba3  1  0.25006482  0.39112467  0.08723120  1
  Ga  Ga4  1  0.57054956  0.06150204  0.19209534  1
  Ga  Ga5  1  0.42945044  0.43849796  0.69209534  1
  Ga  Ga6  1  0.42945044  0.93849796  0.80790466  1
  Ga  Ga7  1  0.57054956  0.56150204  0.30790466  1
  Ga  Ga8  1  0.93271932  0.22815153  0.92033493  1
  Ga  Ga9  1  0.06728068  0.27184847  0.42033493  1
  Ga  Ga10  1  0.06728068  0.77184847  0.07966507  1
  Ga  Ga11  1  0.93271932  0.72815153  0.57966507  1
  Ge  Ge12  1  0.93811460  0.06462299  0.19665690  1
  Ge  Ge13  1  0.06188540  0.43537701  0.69665690  1
  Ge  Ge14  1  0.06188540  0.93537701  0.80334310  1
  Ge  Ge15  1  0.93811460  0.56462299  0.30334310  1
  Ge  Ge16  1  0.56339009  0.23537938  0.91665267  1
  Ge  Ge17  1  0.43660991  0.26462062  0.41665267  1
  Ge  Ge18  1  0.43660991  0.76462062  0.08334733  1
  Ge  Ge19  1  0.56339009  0.73537938  0.58334733  1
  O  O20  1  0.00724694  0.20002645  0.08967519  1
  O  O21  1  0.99275306  0.29997355  0.58967519  1
  O  O22  1  0.99275306  0.79997355  0.91032481  1
  O  O23  1  0.00724694  0.70002645  0.41032481  1
  O  O24  1  0.49373915  0.19726130  0.07701842  1
  O  O25  1  0.50626085  0.30273870  0.57701842  1
  O  O26  1  0.50626085  0.80273870  0.92298158  1
  O  O27  1  0.49373915  0.69726130  0.42298158  1
  O  O28  1  0.94133097  0.12389857  0.36404991  1
  O  O29  1  0.05866903  0.37610143  0.86404991  1
  O  O30  1  0.05866903  0.87610143  0.63595009  1
  O  O31  1  0.94133097  0.62389857  0.13595009  1
  O  O32  1  0.55771043  0.12543155  0.36656182  1
  O  O33  1  0.44228957  0.37456845  0.86656182  1
  O  O34  1  0.44228957  0.87456845  0.63343818  1
  O  O35  1  0.55771043  0.62543155  0.13343818  1
  O  O36  1  0.06985775  0.92516209  0.19140730  1
  O  O37  1  0.93014225  0.57483791  0.69140730  1
  O  O38  1  0.93014225  0.07483791  0.80859270  1
  O  O39  1  0.06985775  0.42516209  0.30859270  1
  O  O40  1  0.43629698  0.91006797  0.19184462  1
  O  O41  1  0.56370302  0.58993203  0.69184462  1
  O  O42  1  0.56370302  0.08993203  0.80815538  1
  O  O43  1  0.43629698  0.41006797  0.30815538  1
  O  O44  1  0.76024400  0.00594806  0.14412290  1
  O  O45  1  0.23975600  0.49405194  0.64412290  1
  O  O46  1  0.23975600  0.99405194  0.85587710  1
  O  O47  1  0.76024400  0.50594806  0.35587710  1
  O  O48  1  0.74507698  0.31381634  0.91268819  1
  O  O49  1  0.25492302  0.18618366  0.41268819  1
  O  O50  1  0.25492302  0.68618366  0.08731181  1
  O  O51  1  0.74507698  0.81381634  0.58731181  1
