# generated using pymatgen
data_CsPPbS4
_symmetry_space_group_name_H-M   'P 1'
_cell_length_a   6.50681389
_cell_length_b   6.85809932
_cell_length_c   18.07838552
_cell_angle_alpha   90.00000000
_cell_angle_beta   90.00000000
_cell_angle_gamma   90.00000000
_symmetry_Int_Tables_number   1
_chemical_formula_structural   CsPPbS4
_chemical_formula_sum   'Cs4 P4 Pb4 S16'
_cell_volume   806.73667137
_cell_formula_units_Z   4
loop_
 _symmetry_equiv_pos_site_id
 _symmetry_equiv_pos_as_xyz
  1  'x, y, z'
loop_
 _atom_site_type_symbol
 _atom_site_label
 _atom_site_symmetry_multiplicity
 _atom_site_fract_x
 _atom_site_fract_y
 _atom_site_fract_z
 _atom_site_occupancy
  Cs  Cs0  1  0.97504941  0.75000000  0.79090642  1
  Cs  Cs1  1  0.02495059  0.25000000  0.20909358  1
  Cs  Cs2  1  0.47504941  0.25000000  0.70909358  1
  Cs  Cs3  1  0.52495059  0.75000000  0.29090642  1
  P  P4  1  0.21860702  0.25000000  0.90881127  1
  P  P5  1  0.28139298  0.25000000  0.40881127  1
  P  P6  1  0.71860702  0.75000000  0.59118873  1
  P  P7  1  0.78139298  0.75000000  0.09118873  1
  Pb  Pb8  1  0.21288317  0.75000000  0.51728698  1
  Pb  Pb9  1  0.28711683  0.75000000  0.01728698  1
  Pb  Pb10  1  0.78711683  0.25000000  0.48271302  1
  Pb  Pb11  1  0.71288317  0.25000000  0.98271302  1
  S  S12  1  0.39433508  0.49018452  0.88680894  1
  S  S13  1  0.14854885  0.25000000  0.01931715  1
  S  S14  1  0.10566492  0.49018452  0.38680894  1
  S  S15  1  0.46023571  0.75000000  0.65421907  1
  S  S16  1  0.60566492  0.99018452  0.11319106  1
  S  S17  1  0.39433508  0.00981548  0.88680894  1
  S  S18  1  0.10566492  0.00981548  0.38680894  1
  S  S19  1  0.35145115  0.25000000  0.51931715  1
  S  S20  1  0.85145115  0.75000000  0.98068285  1
  S  S21  1  0.03976429  0.75000000  0.15421907  1
  S  S22  1  0.53976429  0.25000000  0.34578093  1
  S  S23  1  0.89433508  0.50981548  0.61319106  1
  S  S24  1  0.96023571  0.25000000  0.84578093  1
  S  S25  1  0.60566492  0.50981548  0.11319106  1
  S  S26  1  0.89433508  0.99018452  0.61319106  1
  S  S27  1  0.64854885  0.75000000  0.48068285  1
