# generated using pymatgen
data_KTaN2
_symmetry_space_group_name_H-M   'P 1'
_cell_length_a   5.94471153
_cell_length_b   11.93336622
_cell_length_c   16.55434540
_cell_angle_alpha   90.00000000
_cell_angle_beta   90.00000000
_cell_angle_gamma   90.00000000
_symmetry_Int_Tables_number   1
_chemical_formula_structural   KTaN2
_chemical_formula_sum   'K16 Ta16 N32'
_cell_volume   1174.37221152
_cell_formula_units_Z   16
loop_
 _symmetry_equiv_pos_site_id
 _symmetry_equiv_pos_as_xyz
  1  'x, y, z'
loop_
 _atom_site_type_symbol
 _atom_site_label
 _atom_site_symmetry_multiplicity
 _atom_site_fract_x
 _atom_site_fract_y
 _atom_site_fract_z
 _atom_site_occupancy
  K  K0  1  0.73931283  0.99466085  0.43748706  1
  K  K1  1  0.23931283  0.50533915  0.56251294  1
  K  K2  1  0.26068717  0.49466085  0.06251294  1
  K  K3  1  0.76068717  0.00533915  0.93748706  1
  K  K4  1  0.26068717  0.00533915  0.56251294  1
  K  K5  1  0.76068717  0.49466085  0.43748706  1
  K  K6  1  0.73931283  0.50533915  0.93748706  1
  K  K7  1  0.23931283  0.99466085  0.06251294  1
  K  K8  1  0.81135776  0.26282057  0.31244938  1
  K  K9  1  0.31135776  0.23717943  0.68755062  1
  K  K10  1  0.18864224  0.76282057  0.18755062  1
  K  K11  1  0.68864224  0.73717943  0.81244938  1
  K  K12  1  0.18864224  0.73717943  0.68755062  1
  K  K13  1  0.68864224  0.76282057  0.31244938  1
  K  K14  1  0.81135776  0.23717943  0.81244938  1
  K  K15  1  0.31135776  0.26282057  0.18755062  1
  Ta  Ta16  1  0.22870069  0.01212248  0.31241297  1
  Ta  Ta17  1  0.72870069  0.48787752  0.68758703  1
  Ta  Ta18  1  0.77129931  0.51212248  0.18758703  1
  Ta  Ta19  1  0.27129931  0.98787752  0.81241297  1
  Ta  Ta20  1  0.77129931  0.98787752  0.68758703  1
  Ta  Ta21  1  0.27129931  0.51212248  0.31241297  1
  Ta  Ta22  1  0.22870069  0.48787752  0.81241297  1
  Ta  Ta23  1  0.72870069  0.01212248  0.18758703  1
  Ta  Ta24  1  0.29294915  0.26736556  0.43772157  1
  Ta  Ta25  1  0.79294915  0.23263444  0.56227843  1
  Ta  Ta26  1  0.70705085  0.76736556  0.06227843  1
  Ta  Ta27  1  0.20705085  0.73263444  0.93772157  1
  Ta  Ta28  1  0.70705085  0.73263444  0.56227843  1
  Ta  Ta29  1  0.20705085  0.76736556  0.43772157  1
  Ta  Ta30  1  0.29294915  0.23263444  0.93772157  1
  Ta  Ta31  1  0.79294915  0.26736556  0.06227843  1
  N  N32  1  0.60548273  0.27424373  0.47117432  1
  N  N33  1  0.10548273  0.22575627  0.52882568  1
  N  N34  1  0.39451727  0.77424373  0.02882568  1
  N  N35  1  0.89451727  0.72575627  0.97117432  1
  N  N36  1  0.39451727  0.72575627  0.52882568  1
  N  N37  1  0.89451727  0.77424373  0.47117432  1
  N  N38  1  0.60548273  0.22575627  0.97117432  1
  N  N39  1  0.10548273  0.27424373  0.02882568  1
  N  N40  1  0.19857203  0.41443678  0.40229986  1
  N  N41  1  0.69857203  0.08556322  0.59770014  1
  N  N42  1  0.80142797  0.91443678  0.09770014  1
  N  N43  1  0.30142797  0.58556322  0.90229986  1
  N  N44  1  0.80142797  0.58556322  0.59770014  1
  N  N45  1  0.30142797  0.91443678  0.40229986  1
  N  N46  1  0.19857203  0.08556322  0.90229986  1
  N  N47  1  0.69857203  0.41443678  0.09770014  1
  N  N48  1  0.25907850  0.16628453  0.34674028  1
  N  N49  1  0.75907850  0.33371547  0.65325972  1
  N  N50  1  0.74092150  0.66628453  0.15325972  1
  N  N51  1  0.24092150  0.83371547  0.84674028  1
  N  N52  1  0.74092150  0.83371547  0.65325972  1
  N  N53  1  0.24092150  0.66628453  0.34674028  1
  N  N54  1  0.25907850  0.33371547  0.84674028  1
  N  N55  1  0.75907850  0.16628453  0.15325972  1
  N  N56  1  0.07752009  0.48275253  0.22077441  1
  N  N57  1  0.57752009  0.01724747  0.77922559  1
  N  N58  1  0.92247991  0.98275253  0.27922559  1
  N  N59  1  0.42247991  0.51724747  0.72077441  1
  N  N60  1  0.92247991  0.51724747  0.77922559  1
  N  N61  1  0.42247991  0.98275253  0.22077441  1
  N  N62  1  0.07752009  0.01724747  0.72077441  1
  N  N63  1  0.57752009  0.48275253  0.27922559  1
