# generated using pymatgen
data_Cs2Pd3S4
_symmetry_space_group_name_H-M   'P 1'
_cell_length_a   6.22475749
_cell_length_b   6.22737629
_cell_length_c   7.86042726
_cell_angle_alpha   101.86356651
_cell_angle_beta   101.86411636
_cell_angle_gamma   118.82844570
_symmetry_Int_Tables_number   1
_chemical_formula_structural   Cs2Pd3S4
_chemical_formula_sum   'Cs2 Pd3 S4'
_cell_volume   244.17970668
_cell_formula_units_Z   1
loop_
 _symmetry_equiv_pos_site_id
 _symmetry_equiv_pos_as_xyz
  1  'x, y, z'
loop_
 _atom_site_type_symbol
 _atom_site_label
 _atom_site_symmetry_multiplicity
 _atom_site_fract_x
 _atom_site_fract_y
 _atom_site_fract_z
 _atom_site_occupancy
  Cs  Cs0  1  0.16007170  0.16007543  0.32012220  1
  Cs  Cs1  1  0.83992830  0.83992457  0.67987780  1
  Pd  Pd2  1  0.50000000  0.50000000  0.00000000  1
  Pd  Pd3  1  -0.00000000  0.50000000  0.00000000  1
  Pd  Pd4  1  0.50000000  -0.00000000  0.00000000  1
  S  S5  1  0.22648735  0.56259203  0.78884966  1
  S  S6  1  0.56240000  0.22629955  0.78885018  1
  S  S7  1  0.77351265  0.43740797  0.21115034  1
  S  S8  1  0.43760000  0.77370045  0.21114982  1
