# generated using pymatgen
data_KPO3
_symmetry_space_group_name_H-M   'P 1'
_cell_length_a   4.55149133
_cell_length_b   11.26279304
_cell_length_c   14.06523710
_cell_angle_alpha   62.92127425
_cell_angle_beta   90.00000000
_cell_angle_gamma   90.00000000
_symmetry_Int_Tables_number   1
_chemical_formula_structural   KPO3
_chemical_formula_sum   'K8 P8 O24'
_cell_volume   641.98251335
_cell_formula_units_Z   8
loop_
 _symmetry_equiv_pos_site_id
 _symmetry_equiv_pos_as_xyz
  1  'x, y, z'
loop_
 _atom_site_type_symbol
 _atom_site_label
 _atom_site_symmetry_multiplicity
 _atom_site_fract_x
 _atom_site_fract_y
 _atom_site_fract_z
 _atom_site_occupancy
  K  K0  1  0.78967002  0.93432813  0.35910896  1
  K  K1  1  0.24008550  0.60540760  0.56572367  1
  K  K2  1  0.28967002  0.06567187  0.14089104  1
  K  K3  1  0.21032998  0.06567187  0.64089104  1
  K  K4  1  0.74008550  0.39459240  0.93427633  1
  K  K5  1  0.75991450  0.39459240  0.43427633  1
  K  K6  1  0.71032998  0.93432813  0.85910896  1
  K  K7  1  0.25991450  0.60540760  0.06572367  1
  P  P8  1  0.18965204  0.21556405  0.83826258  1
  P  P9  1  0.68706938  0.31110461  0.69184975  1
  P  P10  1  0.81293062  0.31110461  0.19184975  1
  P  P11  1  0.81034796  0.78443595  0.16173742  1
  P  P12  1  0.31034796  0.21556405  0.33826258  1
  P  P13  1  0.31293062  0.68889539  0.30815025  1
  P  P14  1  0.68965204  0.78443595  0.66173742  1
  P  P15  1  0.18706938  0.68889539  0.80815025  1
  O  O16  1  0.71331111  0.91863170  0.65620826  1
  O  O17  1  0.86526596  0.67729400  0.76619946  1
  O  O18  1  0.78668889  0.91863170  0.15620826  1
  O  O19  1  0.63473404  0.67729400  0.26619946  1
  O  O20  1  0.70661857  0.19776936  0.66535180  1
  O  O21  1  0.36473809  0.72392652  0.69898606  1
  O  O22  1  0.21331111  0.08136830  0.84379174  1
  O  O23  1  0.73947301  0.76191129  0.06844616  1
  O  O24  1  0.63526191  0.27607348  0.30101394  1
  O  O25  1  0.86473809  0.27607348  0.80101394  1
  O  O26  1  0.73917884  0.44701732  0.10854797  1
  O  O27  1  0.26082116  0.55298268  0.89145203  1
  O  O28  1  0.79338143  0.19776936  0.16535180  1
  O  O29  1  0.26052699  0.23808871  0.93155384  1
  O  O30  1  0.28668889  0.08136830  0.34379174  1
  O  O31  1  0.13473404  0.32270600  0.23380054  1
  O  O32  1  0.23947301  0.23808871  0.43155384  1
  O  O33  1  0.76082116  0.44701732  0.60854797  1
  O  O34  1  0.13526191  0.72392652  0.19898606  1
  O  O35  1  0.76052699  0.76191129  0.56844616  1
  O  O36  1  0.23917884  0.55298268  0.39145203  1
  O  O37  1  0.36526596  0.32270600  0.73380054  1
  O  O38  1  0.20661857  0.80223064  0.83464820  1
  O  O39  1  0.29338143  0.80223064  0.33464820  1
