# generated using pymatgen
data_KInSe2
_symmetry_space_group_name_H-M   'P 1'
_cell_length_a   8.16792208
_cell_length_b   8.16792208
_cell_length_c   15.74053010
_cell_angle_alpha   82.54852483
_cell_angle_beta   82.54852483
_cell_angle_gamma   90.01055457
_symmetry_Int_Tables_number   1
_chemical_formula_structural   KInSe2
_chemical_formula_sum   'K8 In8 Se16'
_cell_volume   1032.31261853
_cell_formula_units_Z   8
loop_
 _symmetry_equiv_pos_site_id
 _symmetry_equiv_pos_as_xyz
  1  'x, y, z'
loop_
 _atom_site_type_symbol
 _atom_site_label
 _atom_site_symmetry_multiplicity
 _atom_site_fract_x
 _atom_site_fract_y
 _atom_site_fract_z
 _atom_site_occupancy
  K  K0  1  0.15359231  0.78032804  0.88587075  1
  K  K1  1  0.21967196  0.84640769  0.61412925  1
  K  K2  1  0.84640769  0.21967196  0.11412925  1
  K  K3  1  0.78032804  0.15359231  0.38587075  1
  K  K4  1  0.22073486  0.34417389  0.61958148  1
  K  K5  1  0.65582611  0.77926514  0.88041852  1
  K  K6  1  0.77926514  0.65582611  0.38041852  1
  K  K7  1  0.34417389  0.22073486  0.11958148  1
  In  In8  1  0.91263648  0.28868503  0.84409432  1
  In  In9  1  0.71131497  0.08736352  0.65590568  1
  In  In10  1  0.08736352  0.71131497  0.15590568  1
  In  In11  1  0.28868503  0.91263648  0.34409432  1
  In  In12  1  0.71118982  0.58438738  0.65636235  1
  In  In13  1  0.41561262  0.28881018  0.84363765  1
  In  In14  1  0.28881018  0.41561262  0.34363765  1
  In  In15  1  0.58438738  0.71118982  0.15636235  1
  Se  Se16  1  0.95082599  0.57478272  0.75000218  1
  Se  Se17  1  0.42521728  0.04917401  0.74999782  1
  Se  Se18  1  0.04917401  0.42521728  0.24999782  1
  Se  Se19  1  0.57478272  0.95082599  0.25000218  1
  Se  Se20  1  0.13904721  0.26179034  0.94619003  1
  Se  Se21  1  0.73820966  0.86095279  0.55380997  1
  Se  Se22  1  0.86095279  0.73820966  0.05380997  1
  Se  Se23  1  0.26179034  0.13904721  0.44619003  1
  Se  Se24  1  0.95031745  0.04968255  0.75000000  1
  Se  Se25  1  0.04968255  0.95031745  0.25000000  1
  Se  Se26  1  0.63782017  0.26312679  0.94694830  1
  Se  Se27  1  0.73687321  0.36217983  0.55305170  1
  Se  Se28  1  0.36217983  0.73687321  0.05305170  1
  Se  Se29  1  0.26312679  0.63782017  0.44694830  1
  Se  Se30  1  0.42475071  0.57524929  0.75000000  1
  Se  Se31  1  0.57524929  0.42475071  0.25000000  1
