# generated using pymatgen
data_KMnO2
_symmetry_space_group_name_H-M   'P 1'
_cell_length_a   11.32640702
_cell_length_b   6.22781615
_cell_length_c   10.09682281
_cell_angle_alpha   85.26638580
_cell_angle_beta   90.00000000
_cell_angle_gamma   90.00000000
_symmetry_Int_Tables_number   1
_chemical_formula_structural   KMnO2
_chemical_formula_sum   'K12 Mn12 O24'
_cell_volume   709.78829645
_cell_formula_units_Z   12
loop_
 _symmetry_equiv_pos_site_id
 _symmetry_equiv_pos_as_xyz
  1  'x, y, z'
loop_
 _atom_site_type_symbol
 _atom_site_label
 _atom_site_symmetry_multiplicity
 _atom_site_fract_x
 _atom_site_fract_y
 _atom_site_fract_z
 _atom_site_occupancy
  K  K0  1  0.75000000  0.82851070  0.42446931  1
  K  K1  1  0.46287245  0.81044122  0.41485168  1
  K  K2  1  0.53712755  0.18955878  0.58514832  1
  K  K3  1  0.75000000  0.07532371  0.82295876  1
  K  K4  1  0.10480162  0.06620499  0.88305119  1
  K  K5  1  0.60480162  0.93379501  0.11694881  1
  K  K6  1  0.25000000  0.92467629  0.17704124  1
  K  K7  1  0.96287245  0.18955878  0.58514832  1
  K  K8  1  0.39519838  0.06620499  0.88305119  1
  K  K9  1  0.89519838  0.93379501  0.11694881  1
  K  K10  1  0.03712755  0.81044122  0.41485168  1
  K  K11  1  0.25000000  0.17148930  0.57553069  1
  Mn  Mn12  1  0.50119232  0.36257294  0.27055301  1
  Mn  Mn13  1  0.75000000  0.35594208  0.28118186  1
  Mn  Mn14  1  0.25000000  0.37957265  0.27229543  1
  Mn  Mn15  1  0.87493764  0.48415863  0.98883133  1
  Mn  Mn16  1  0.25000000  0.64405792  0.71881814  1
  Mn  Mn17  1  0.75000000  0.62042735  0.72770457  1
  Mn  Mn18  1  0.00119232  0.63742706  0.72944699  1
  Mn  Mn19  1  0.37493764  0.51584137  0.01116867  1
  Mn  Mn20  1  0.49880768  0.63742706  0.72944699  1
  Mn  Mn21  1  0.62506236  0.48415863  0.98883133  1
  Mn  Mn22  1  0.99880768  0.36257294  0.27055301  1
  Mn  Mn23  1  0.12506236  0.51584137  0.01116867  1
  O  O24  1  0.25000000  0.31481546  0.05540609  1
  O  O25  1  0.62194467  0.42391404  0.77212103  1
  O  O26  1  0.12194467  0.57608596  0.22787897  1
  O  O27  1  0.37212516  0.19166291  0.34087531  1
  O  O28  1  0.62117944  0.16195581  0.33044084  1
  O  O29  1  0.37882056  0.83804419  0.66955916  1
  O  O30  1  0.75000000  0.68518454  0.94459391  1
  O  O31  1  0.87340842  0.56591612  0.26722934  1
  O  O32  1  0.25000000  0.70532368  0.94415066  1
  O  O33  1  0.12659158  0.43408388  0.73277066  1
  O  O34  1  0.12117944  0.83804419  0.66955916  1
  O  O35  1  0.75000000  0.29467632  0.05584934  1
  O  O36  1  0.00197294  0.30835104  0.05908565  1
  O  O37  1  0.87805533  0.42391404  0.77212103  1
  O  O38  1  0.49802706  0.30835104  0.05908565  1
  O  O39  1  0.99802706  0.69164896  0.94091435  1
  O  O40  1  0.12787484  0.19166291  0.34087531  1
  O  O41  1  0.62787484  0.80833709  0.65912469  1
  O  O42  1  0.62659158  0.56591612  0.26722934  1
  O  O43  1  0.87882056  0.16195581  0.33044084  1
  O  O44  1  0.37805533  0.57608596  0.22787897  1
  O  O45  1  0.50197294  0.69164896  0.94091435  1
  O  O46  1  0.87212516  0.80833709  0.65912469  1
  O  O47  1  0.37340842  0.43408388  0.73277066  1
