# generated using pymatgen
data_PbI2
_symmetry_space_group_name_H-M   'P 1'
_cell_length_a   14.94101879
_cell_length_b   14.94101879
_cell_length_c   14.94101914
_cell_angle_alpha   17.83071218
_cell_angle_beta   17.83071218
_cell_angle_gamma   17.83070628
_symmetry_Int_Tables_number   1
_chemical_formula_structural   PbI2
_chemical_formula_sum   'Pb2 I4'
_cell_volume   273.01588180
_cell_formula_units_Z   2
loop_
 _symmetry_equiv_pos_site_id
 _symmetry_equiv_pos_as_xyz
  1  'x, y, z'
loop_
 _atom_site_type_symbol
 _atom_site_label
 _atom_site_symmetry_multiplicity
 _atom_site_fract_x
 _atom_site_fract_y
 _atom_site_fract_z
 _atom_site_occupancy
  Pb  Pb0  1  -0.00000000  -0.00000000  -0.00000000  1
  Pb  Pb1  1  0.50000000  0.50000000  0.50000000  1
  I  I2  1  0.12448395  0.12448395  0.12448395  1
  I  I3  1  0.87551605  0.87551605  0.87551605  1
  I  I4  1  0.29114597  0.29114597  0.29114597  1
  I  I5  1  0.70885403  0.70885403  0.70885403  1
