# generated using pymatgen
data_K3In2As3
_symmetry_space_group_name_H-M   'P 1'
_cell_length_a   10.51184083
_cell_length_b   10.51184083
_cell_length_c   14.88376899
_cell_angle_alpha   90.00000000
_cell_angle_beta   90.00000000
_cell_angle_gamma   142.13376966
_symmetry_Int_Tables_number   1
_chemical_formula_structural   K3In2As3
_chemical_formula_sum   'K12 In8 As12'
_cell_volume   1009.51207486
_cell_formula_units_Z   4
loop_
 _symmetry_equiv_pos_site_id
 _symmetry_equiv_pos_as_xyz
  1  'x, y, z'
loop_
 _atom_site_type_symbol
 _atom_site_label
 _atom_site_symmetry_multiplicity
 _atom_site_fract_x
 _atom_site_fract_y
 _atom_site_fract_z
 _atom_site_occupancy
  K  K0  1  0.61348930  0.92862493  0.67558627  1
  K  K1  1  0.57137507  0.88651070  0.17558627  1
  K  K2  1  0.07137507  0.38651070  0.32441373  1
  K  K3  1  0.11348930  0.42862493  0.82441373  1
  K  K4  1  0.65184740  0.65184740  0.86212953  1
  K  K5  1  0.42862493  0.11348930  0.82441373  1
  K  K6  1  0.34815260  0.34815260  0.13787047  1
  K  K7  1  0.92862493  0.61348930  0.67558627  1
  K  K8  1  0.15184740  0.15184740  0.63787047  1
  K  K9  1  0.88651070  0.57137507  0.17558627  1
  K  K10  1  0.84815260  0.84815260  0.36212953  1
  K  K11  1  0.38651070  0.07137507  0.32441373  1
  In  In12  1  0.23897335  0.76102665  0.50000000  1
  In  In13  1  0.26102665  0.73897335  -0.00000000  1
  In  In14  1  0.73897335  0.26102665  -0.00000000  1
  In  In15  1  0.91664567  0.08335433  -0.00000000  1
  In  In16  1  0.76102665  0.23897335  0.50000000  1
  In  In17  1  0.08335433  0.91664567  -0.00000000  1
  In  In18  1  0.41664567  0.58335433  0.50000000  1
  In  In19  1  0.58335433  0.41664567  0.50000000  1
  As  As20  1  0.05123538  0.40000121  0.09770738  1
  As  As21  1  0.66186053  0.66186053  0.61842410  1
  As  As22  1  0.40000121  0.05123538  0.09770738  1
  As  As23  1  0.59999879  0.94876462  0.90229262  1
  As  As24  1  0.94876462  0.59999879  0.90229262  1
  As  As25  1  0.44876462  0.09999879  0.59770738  1
  As  As26  1  0.55123538  0.90000121  0.40229262  1
  As  As27  1  0.16186053  0.16186053  0.88157590  1
  As  As28  1  0.09999879  0.44876462  0.59770738  1
  As  As29  1  0.83813947  0.83813947  0.11842410  1
  As  As30  1  0.33813947  0.33813947  0.38157590  1
  As  As31  1  0.90000121  0.55123538  0.40229262  1
