# generated using pymatgen
data_PbWO4
_symmetry_space_group_name_H-M   'P 1'
_cell_length_a   4.98741890
_cell_length_b   5.61288628
_cell_length_c   13.64621543
_cell_angle_alpha   71.99290112
_cell_angle_beta   90.00000000
_cell_angle_gamma   90.00000000
_symmetry_Int_Tables_number   1
_chemical_formula_structural   PbWO4
_chemical_formula_sum   'Pb4 W4 O16'
_cell_volume   363.29812117
_cell_formula_units_Z   4
loop_
 _symmetry_equiv_pos_site_id
 _symmetry_equiv_pos_as_xyz
  1  'x, y, z'
loop_
 _atom_site_type_symbol
 _atom_site_label
 _atom_site_symmetry_multiplicity
 _atom_site_fract_x
 _atom_site_fract_y
 _atom_site_fract_z
 _atom_site_occupancy
  Pb  Pb0  1  0.69662151  0.16797990  0.34894472  1
  Pb  Pb1  1  0.19662151  0.83202010  0.15105528  1
  Pb  Pb2  1  0.30337849  0.83202010  0.65105528  1
  Pb  Pb3  1  0.80337849  0.16797990  0.84894472  1
  W  W4  1  0.24925914  0.61191398  0.42269944  1
  W  W5  1  0.74925914  0.38808602  0.07730056  1
  W  W6  1  0.75074086  0.38808602  0.57730056  1
  W  W7  1  0.25074086  0.61191398  0.92269944  1
  O  O8  1  0.54408814  0.72820796  0.48207105  1
  O  O9  1  0.04408814  0.27179204  0.01792895  1
  O  O10  1  0.45591186  0.27179204  0.51792895  1
  O  O11  1  0.95591186  0.72820796  0.98207105  1
  O  O12  1  0.94344383  0.39175585  0.43851631  1
  O  O13  1  0.44344383  0.60824415  0.06148369  1
  O  O14  1  0.05655617  0.60824415  0.56148369  1
  O  O15  1  0.55655617  0.39175585  0.93851631  1
  O  O16  1  0.11452345  0.90975767  0.35097895  1
  O  O17  1  0.61452345  0.09024233  0.14902105  1
  O  O18  1  0.88547655  0.09024233  0.64902105  1
  O  O19  1  0.38547655  0.90975767  0.85097895  1
  O  O20  1  0.39316038  0.54039437  0.31319804  1
  O  O21  1  0.89316038  0.45960563  0.18680196  1
  O  O22  1  0.60683962  0.45960563  0.68680196  1
  O  O23  1  0.10683962  0.54039437  0.81319804  1
