# generated using pymatgen
data_Na3Si3SnO9F
_symmetry_space_group_name_H-M   'P 1'
_cell_length_a   8.75381785
_cell_length_b   8.75381785
_cell_length_c   6.52107054
_cell_angle_alpha   77.06337995
_cell_angle_beta   77.06337995
_cell_angle_gamma   105.87606228
_symmetry_Int_Tables_number   1
_chemical_formula_structural   Na3Si3SnO9F
_chemical_formula_sum   'Na6 Si6 Sn2 O18 F2'
_cell_volume   446.25304464
_cell_formula_units_Z   2
loop_
 _symmetry_equiv_pos_site_id
 _symmetry_equiv_pos_as_xyz
  1  'x, y, z'
loop_
 _atom_site_type_symbol
 _atom_site_label
 _atom_site_symmetry_multiplicity
 _atom_site_fract_x
 _atom_site_fract_y
 _atom_site_fract_z
 _atom_site_occupancy
  Na  Na0  1  0.51169687  0.51169687  0.73719141  1
  Na  Na1  1  0.12248185  0.39402717  0.07849177  1
  Na  Na2  1  0.39402717  0.12248185  0.07849177  1
  Na  Na3  1  0.48830313  0.48830313  0.26280859  1
  Na  Na4  1  0.87751815  0.60597283  0.92150823  1
  Na  Na5  1  0.60597283  0.87751815  0.92150823  1
  Si  Si6  1  0.68753882  0.90836055  0.39917025  1
  Si  Si7  1  0.09163945  0.31246118  0.60082975  1
  Si  Si8  1  0.31246118  0.09163945  0.60082975  1
  Si  Si9  1  0.78542743  0.21457257  -0.00000000  1
  Si  Si10  1  0.21457257  0.78542743  -0.00000000  1
  Si  Si11  1  0.90836055  0.68753882  0.39917025  1
  Sn  Sn12  1  0.72327878  0.27672122  0.50000000  1
  Sn  Sn13  1  0.27672122  0.72327878  0.50000000  1
  O  O14  1  0.32891682  0.77377850  0.16107403  1
  O  O15  1  0.27513220  0.98251078  0.85909605  1
  O  O16  1  0.98251078  0.27513220  0.85909605  1
  O  O17  1  0.72486780  0.01748922  0.14090395  1
  O  O18  1  0.67418970  0.02584671  0.55587318  1
  O  O19  1  0.22622150  0.67108318  0.83892597  1
  O  O20  1  0.47853600  0.25211306  0.53569424  1
  O  O21  1  0.25211306  0.47853600  0.53569424  1
  O  O22  1  0.74788694  0.52146400  0.46430576  1
  O  O23  1  0.77377850  0.32891682  0.16107403  1
  O  O24  1  0.32581030  0.97415329  0.44412682  1
  O  O25  1  0.15656241  0.15656241  0.59195060  1
  O  O26  1  0.97415329  0.32581030  0.44412682  1
  O  O27  1  0.52146400  0.74788694  0.46430576  1
  O  O28  1  0.02584671  0.67418970  0.55587318  1
  O  O29  1  0.67108318  0.22622150  0.83892597  1
  O  O30  1  0.01748922  0.72486780  0.14090395  1
  O  O31  1  0.84343759  0.84343759  0.40804940  1
  F  F32  1  0.35082644  0.35082644  0.06950217  1
  F  F33  1  0.64917356  0.64917356  0.93049783  1
