# generated using pymatgen
data_Rb2Ti6O13
_symmetry_space_group_name_H-M   'P 1'
_cell_length_a   8.21556107
_cell_length_b   8.21556107
_cell_length_c   9.13042308
_cell_angle_alpha   79.87910145
_cell_angle_beta   79.87910145
_cell_angle_gamma   26.89395159
_symmetry_Int_Tables_number   1
_chemical_formula_structural   Rb2Ti6O13
_chemical_formula_sum   'Rb2 Ti6 O13'
_cell_volume   274.17247622
_cell_formula_units_Z   1
loop_
 _symmetry_equiv_pos_site_id
 _symmetry_equiv_pos_as_xyz
  1  'x, y, z'
loop_
 _atom_site_type_symbol
 _atom_site_label
 _atom_site_symmetry_multiplicity
 _atom_site_fract_x
 _atom_site_fract_y
 _atom_site_fract_z
 _atom_site_occupancy
  Rb  Rb0  1  0.54484172  0.54484172  0.25044221  1
  Rb  Rb1  1  0.45515828  0.45515828  0.74955779  1
  Ti  Ti2  1  0.88544913  0.88544913  0.09464204  1
  Ti  Ti3  1  0.11455087  0.11455087  0.90535796  1
  Ti  Ti4  1  0.82566224  0.82566224  0.43696408  1
  Ti  Ti5  1  0.17433776  0.17433776  0.56303592  1
  Ti  Ti6  1  0.76573463  0.76573463  0.77929659  1
  Ti  Ti7  1  0.23426537  0.23426537  0.22070341  1
  O  O8  1  -0.00000000  -0.00000000  0.00000000  1
  O  O9  1  0.76172205  0.76172205  0.23881164  1
  O  O10  1  0.23827795  0.23827795  0.76118836  1
  O  O11  1  0.91800172  0.91800172  0.28978253  1
  O  O12  1  0.08199828  0.08199828  0.71021747  1
  O  O13  1  0.70377334  0.70377334  0.57246802  1
  O  O14  1  0.29622666  0.29622666  0.42753198  1
  O  O15  1  0.86088037  0.86088037  0.61566383  1
  O  O16  1  0.13911963  0.13911963  0.38433617  1
  O  O17  1  0.64129529  0.64129529  0.88966686  1
  O  O18  1  0.35870471  0.35870471  0.11033314  1
  O  O19  1  0.83043405  0.83043405  0.91772555  1
  O  O20  1  0.16956595  0.16956595  0.08227445  1
