# generated using pymatgen
data_Nb3SI7
_symmetry_space_group_name_H-M   'P 1'
_cell_length_a   12.69572745
_cell_length_b   7.99807490
_cell_length_c   16.00801057
_cell_angle_alpha   80.55080808
_cell_angle_beta   90.00000000
_cell_angle_gamma   90.00000000
_symmetry_Int_Tables_number   1
_chemical_formula_structural   Nb3SI7
_chemical_formula_sum   'Nb12 S4 I28'
_cell_volume   1603.42032444
_cell_formula_units_Z   4
loop_
 _symmetry_equiv_pos_site_id
 _symmetry_equiv_pos_as_xyz
  1  'x, y, z'
loop_
 _atom_site_type_symbol
 _atom_site_label
 _atom_site_symmetry_multiplicity
 _atom_site_fract_x
 _atom_site_fract_y
 _atom_site_fract_z
 _atom_site_occupancy
  Nb  Nb0  1  0.89027201  0.15553128  0.70875885  1
  Nb  Nb1  1  0.39027201  0.34446872  0.29124115  1
  Nb  Nb2  1  0.10972799  0.84446872  0.29124115  1
  Nb  Nb3  1  0.60972799  0.65553128  0.70875885  1
  Nb  Nb4  1  0.10946073  0.13063024  0.71080314  1
  Nb  Nb5  1  0.60946073  0.36936976  0.28919686  1
  Nb  Nb6  1  0.89053927  0.86936976  0.28919686  1
  Nb  Nb7  1  0.39053927  0.63063024  0.71080314  1
  Nb  Nb8  1  0.99800265  0.08175500  0.86208577  1
  Nb  Nb9  1  0.49800265  0.41824500  0.13791423  1
  Nb  Nb10  1  0.00199735  0.91824500  0.13791423  1
  Nb  Nb11  1  0.50199735  0.58175500  0.86208577  1
  S  S12  1  0.98849120  0.89685557  0.75655627  1
  S  S13  1  0.48849120  0.60314443  0.24344373  1
  S  S14  1  0.01150880  0.10314443  0.24344373  1
  S  S15  1  0.51150880  0.39685557  0.75655627  1
  I  I16  1  0.22294682  0.07450334  0.86487985  1
  I  I17  1  0.72294682  0.42549666  0.13512015  1
  I  I18  1  0.77705318  0.92549666  0.13512015  1
  I  I19  1  0.27705318  0.57450334  0.86487985  1
  I  I20  1  0.01128257  0.41486255  0.76751691  1
  I  I21  1  0.51128257  0.08513745  0.23248309  1
  I  I22  1  0.98871743  0.58513745  0.23248309  1
  I  I23  1  0.48871743  0.91486255  0.76751691  1
  I  I24  1  0.74559611  0.43627051  0.62869059  1
  I  I25  1  0.24559611  0.06372949  0.37130941  1
  I  I26  1  0.25440389  0.56372949  0.37130941  1
  I  I27  1  0.75440389  0.93627051  0.62869059  1
  I  I28  1  0.27999471  0.37143801  0.63539491  1
  I  I29  1  0.77999471  0.12856199  0.36460509  1
  I  I30  1  0.72000529  0.62856199  0.36460509  1
  I  I31  1  0.22000529  0.87143801  0.63539491  1
  I  I32  1  0.77429633  0.11870451  0.86158541  1
  I  I33  1  0.27429633  0.38129549  0.13841459  1
  I  I34  1  0.22570367  0.88129549  0.13841459  1
  I  I35  1  0.72570367  0.61870451  0.86158541  1
  I  I36  1  0.99315380  0.76677971  0.98015833  1
  I  I37  1  0.49315380  0.73322029  0.01984167  1
  I  I38  1  0.00684620  0.23322029  0.01984167  1
  I  I39  1  0.50684620  0.26677971  0.98015833  1
  I  I40  1  0.00419294  0.22672550  0.55379544  1
  I  I41  1  0.50419294  0.27327450  0.44620456  1
  I  I42  1  0.99580706  0.77327450  0.44620456  1
  I  I43  1  0.49580706  0.72672550  0.55379544  1
