# generated using pymatgen
data_CsLuS2
_symmetry_space_group_name_H-M   'P 1'
_cell_length_a   8.36812854
_cell_length_b   8.36812849
_cell_length_c   8.36812721
_cell_angle_alpha   27.57090429
_cell_angle_beta   27.57090297
_cell_angle_gamma   27.57090807
_symmetry_Int_Tables_number   1
_chemical_formula_structural   CsLuS2
_chemical_formula_sum   'Cs1 Lu1 S2'
_cell_volume   110.81040567
_cell_formula_units_Z   1
loop_
 _symmetry_equiv_pos_site_id
 _symmetry_equiv_pos_as_xyz
  1  'x, y, z'
loop_
 _atom_site_type_symbol
 _atom_site_label
 _atom_site_symmetry_multiplicity
 _atom_site_fract_x
 _atom_site_fract_y
 _atom_site_fract_z
 _atom_site_occupancy
  Cs  Cs0  1  0.00000000  -0.00000000  -0.00000000  1
  Lu  Lu1  1  0.50000000  0.50000000  0.50000000  1
  S  S2  1  0.77408323  0.77408323  0.77408323  1
  S  S3  1  0.22591677  0.22591677  0.22591677  1
