# generated using pymatgen
data_HoMn2O5
_symmetry_space_group_name_H-M   'P 1'
_cell_length_a   5.67283828
_cell_length_b   7.20961990
_cell_length_c   8.45004989
_cell_angle_alpha   90.00000000
_cell_angle_beta   90.00000000
_cell_angle_gamma   90.00000000
_symmetry_Int_Tables_number   1
_chemical_formula_structural   HoMn2O5
_chemical_formula_sum   'Ho4 Mn8 O20'
_cell_volume   345.59865596
_cell_formula_units_Z   4
loop_
 _symmetry_equiv_pos_site_id
 _symmetry_equiv_pos_as_xyz
  1  'x, y, z'
loop_
 _atom_site_type_symbol
 _atom_site_label
 _atom_site_symmetry_multiplicity
 _atom_site_fract_x
 _atom_site_fract_y
 _atom_site_fract_z
 _atom_site_occupancy
  Ho  Ho0  1  0.00000000  0.13705041  0.17084977  1
  Ho  Ho1  1  0.00000000  0.86294959  0.82915023  1
  Ho  Ho2  1  0.00000000  0.63705041  0.32915023  1
  Ho  Ho3  1  0.00000000  0.36294959  0.67084977  1
  Mn  Mn4  1  0.25375442  -0.00000000  0.50000000  1
  Mn  Mn5  1  0.74624558  0.50000000  -0.00000000  1
  Mn  Mn6  1  0.74624558  -0.00000000  0.50000000  1
  Mn  Mn7  1  0.25375442  0.50000000  -0.00000000  1
  Mn  Mn8  1  0.50000000  0.41224664  0.34893459  1
  Mn  Mn9  1  0.50000000  0.58775336  0.65106541  1
  Mn  Mn10  1  0.50000000  0.91224664  0.15106541  1
  Mn  Mn11  1  0.50000000  0.08775336  0.84893459  1
  O  O12  1  0.27053050  -0.00000000  -0.00000000  1
  O  O13  1  0.72946950  0.50000000  0.50000000  1
  O  O14  1  0.72946950  -0.00000000  -0.00000000  1
  O  O15  1  0.27053050  0.50000000  0.50000000  1
  O  O16  1  0.00000000  0.16398011  0.44307691  1
  O  O17  1  0.00000000  0.83601989  0.55692309  1
  O  O18  1  0.00000000  0.66398011  0.05692309  1
  O  O19  1  0.00000000  0.33601989  0.94307691  1
  O  O20  1  0.50000000  0.15298343  0.43256551  1
  O  O21  1  0.50000000  0.84701657  0.56743449  1
  O  O22  1  0.50000000  0.65298343  0.06743449  1
  O  O23  1  0.50000000  0.34701657  0.93256551  1
  O  O24  1  0.24260972  0.39326704  0.20642772  1
  O  O25  1  0.24260972  0.60673296  0.79357228  1
  O  O26  1  0.75739028  0.89326704  0.29357228  1
  O  O27  1  0.75739028  0.10673296  0.70642772  1
  O  O28  1  0.75739028  0.60673296  0.79357228  1
  O  O29  1  0.75739028  0.39326704  0.20642772  1
  O  O30  1  0.24260972  0.10673296  0.70642772  1
  O  O31  1  0.24260972  0.89326704  0.29357228  1
