# generated using pymatgen
data_Cs4PbO4
_symmetry_space_group_name_H-M   'P 1'
_cell_length_a   7.42394384
_cell_length_b   11.80531539
_cell_length_c   11.90220267
_cell_angle_alpha   68.83387966
_cell_angle_beta   90.00000000
_cell_angle_gamma   90.00000000
_symmetry_Int_Tables_number   1
_chemical_formula_structural   Cs4PbO4
_chemical_formula_sum   'Cs16 Pb4 O16'
_cell_volume   972.76044889
_cell_formula_units_Z   4
loop_
 _symmetry_equiv_pos_site_id
 _symmetry_equiv_pos_as_xyz
  1  'x, y, z'
loop_
 _atom_site_type_symbol
 _atom_site_label
 _atom_site_symmetry_multiplicity
 _atom_site_fract_x
 _atom_site_fract_y
 _atom_site_fract_z
 _atom_site_occupancy
  Cs  Cs0  1  0.41564536  0.70368043  0.93785372  1
  Cs  Cs1  1  0.33276034  0.10755240  0.37060315  1
  Cs  Cs2  1  0.91564536  0.79631957  0.06214628  1
  Cs  Cs3  1  0.83276034  0.39244760  0.62939685  1
  Cs  Cs4  1  0.66723966  0.89244760  0.62939685  1
  Cs  Cs5  1  0.81888493  0.20857535  0.42319201  1
  Cs  Cs6  1  0.31888493  0.29142465  0.57680799  1
  Cs  Cs7  1  0.88805332  0.58085982  0.84175468  1
  Cs  Cs8  1  0.38805332  0.91914018  0.15824532  1
  Cs  Cs9  1  0.61194668  0.08085982  0.84175468  1
  Cs  Cs10  1  0.58435464  0.29631957  0.06214628  1
  Cs  Cs11  1  0.68111507  0.70857535  0.42319201  1
  Cs  Cs12  1  0.08435464  0.20368043  0.93785372  1
  Cs  Cs13  1  0.11194668  0.41914018  0.15824532  1
  Cs  Cs14  1  0.16723966  0.60755240  0.37060315  1
  Cs  Cs15  1  0.18111507  0.79142465  0.57680799  1
  Pb  Pb16  1  0.37544543  0.49142185  0.76013576  1
  Pb  Pb17  1  0.87544543  0.00857815  0.23986424  1
  Pb  Pb18  1  0.12455457  0.99142185  0.76013576  1
  Pb  Pb19  1  0.62455457  0.50857815  0.23986424  1
  O  O20  1  0.48557708  0.67075657  0.21185999  1
  O  O21  1  0.33563469  0.01210482  0.63737970  1
  O  O22  1  0.51442292  0.32924343  0.78814001  1
  O  O23  1  0.01442292  0.17075657  0.21185999  1
  O  O24  1  0.16436531  0.51210482  0.63737970  1
  O  O25  1  0.53691252  0.64721400  0.68860661  1
  O  O26  1  0.03691252  0.85278600  0.31139339  1
  O  O27  1  0.96308748  0.14721400  0.68860661  1
  O  O28  1  0.66436531  0.98789518  0.36262030  1
  O  O29  1  0.23604753  0.97251878  0.92705845  1
  O  O30  1  0.76395247  0.02748122  0.07294155  1
  O  O31  1  0.46308748  0.35278600  0.31139339  1
  O  O32  1  0.73604753  0.52748122  0.07294155  1
  O  O33  1  0.26395247  0.47251878  0.92705845  1
  O  O34  1  0.83563469  0.48789518  0.36262030  1
  O  O35  1  0.98557708  0.82924343  0.78814001  1
