# generated using pymatgen
data_Rb2MnO4
_symmetry_space_group_name_H-M   'P 1'
_cell_length_a   6.02725995
_cell_length_b   7.98610320
_cell_length_c   10.65345707
_cell_angle_alpha   89.99870878
_cell_angle_beta   90.00160158
_cell_angle_gamma   89.99976155
_symmetry_Int_Tables_number   1
_chemical_formula_structural   Rb2MnO4
_chemical_formula_sum   'Rb8 Mn4 O16'
_cell_volume   512.79691127
_cell_formula_units_Z   4
loop_
 _symmetry_equiv_pos_site_id
 _symmetry_equiv_pos_as_xyz
  1  'x, y, z'
loop_
 _atom_site_type_symbol
 _atom_site_label
 _atom_site_symmetry_multiplicity
 _atom_site_fract_x
 _atom_site_fract_y
 _atom_site_fract_z
 _atom_site_occupancy
  Rb  Rb0  1  0.74999710  0.83550554  0.58930765  1
  Rb  Rb1  1  0.25000515  0.16450044  0.41070253  1
  Rb  Rb2  1  0.74999965  0.33550041  0.91069807  1
  Rb  Rb3  1  0.25000450  0.66449592  0.08930196  1
  Rb  Rb4  1  0.75001064  0.51522093  0.30453112  1
  Rb  Rb5  1  0.25001020  0.48477066  0.69547655  1
  Rb  Rb6  1  0.75000817  0.01519799  0.19547979  1
  Rb  Rb7  1  0.25000668  0.98478780  0.80451713  1
  Mn  Mn8  1  0.75002170  0.76716427  0.92034484  1
  Mn  Mn9  1  0.24999396  0.23285265  0.07964820  1
  Mn  Mn10  1  0.74999716  0.26717732  0.57965038  1
  Mn  Mn11  1  0.24997947  0.73280527  0.42034577  1
  O  O12  1  0.75001721  0.20445610  0.43198555  1
  O  O13  1  0.24999231  0.79551427  0.56801106  1
  O  O14  1  0.75005344  0.70445152  0.06801303  1
  O  O15  1  0.24999301  0.29556491  0.93197813  1
  O  O16  1  0.74999985  0.97256469  0.91654033  1
  O  O17  1  0.24995592  0.02745772  0.08345747  1
  O  O18  1  0.74997095  0.47257733  0.58344625  1
  O  O19  1  0.24997222  0.52740466  0.41655474  1
  O  O20  1  0.97132740  0.69198533  0.84953556  1
  O  O21  1  0.47129555  0.30802716  0.15046164  1
  O  O22  1  0.52869581  0.19199498  0.65045940  1
  O  O23  1  0.02866234  0.80801211  0.34955742  1
  O  O24  1  0.02868330  0.30803934  0.15045341  1
  O  O25  1  0.52872205  0.69197808  0.84953438  1
  O  O26  1  0.47130360  0.80798039  0.34955220  1
  O  O27  1  0.97132067  0.19201121  0.65045445  1
