# generated using pymatgen
data_Al(IO3)3
_symmetry_space_group_name_H-M   'P 1'
_cell_length_a   8.99652604
_cell_length_b   8.99665586
_cell_length_c   5.18950711
_cell_angle_alpha   89.99861261
_cell_angle_beta   90.00127858
_cell_angle_gamma   120.00159703
_symmetry_Int_Tables_number   1
_chemical_formula_structural   Al(IO3)3
_chemical_formula_sum   'Al2 I6 O18'
_cell_volume   363.75226243
_cell_formula_units_Z   2
loop_
 _symmetry_equiv_pos_site_id
 _symmetry_equiv_pos_as_xyz
  1  'x, y, z'
loop_
 _atom_site_type_symbol
 _atom_site_label
 _atom_site_symmetry_multiplicity
 _atom_site_fract_x
 _atom_site_fract_y
 _atom_site_fract_z
 _atom_site_occupancy
  Al  Al0  1  0.33332455  0.66666398  0.08198280  1
  Al  Al1  1  0.66667358  0.33334731  0.58199315  1
  I  I2  1  0.33410644  0.31225787  0.22160976  1
  I  I3  1  0.66588367  0.68772962  0.72163807  1
  I  I4  1  0.02186219  0.33414658  0.72165705  1
  I  I5  1  0.97814427  0.66585986  0.22165231  1
  I  I6  1  0.31233136  0.97817761  0.72165802  1
  I  I7  1  0.68767774  0.02183353  0.22170229  1
  O  O8  1  0.13156443  0.54877143  0.87535151  1
  O  O9  1  0.51702953  0.80646356  0.30558437  1
  O  O10  1  0.28942356  0.48293241  0.30554490  1
  O  O11  1  0.19351460  0.71056787  0.30557338  1
  O  O12  1  0.48296751  0.19354858  0.80558965  1
  O  O13  1  0.80648940  0.28943191  0.80557097  1
  O  O14  1  0.58276720  0.13154498  0.37540717  1
  O  O15  1  0.21582556  0.17378082  0.48305102  1
  O  O16  1  0.17381386  0.95795750  0.98301178  1
  O  O17  1  0.45122898  0.58282233  0.87534495  1
  O  O18  1  0.82618044  0.04202507  0.48307562  1
  O  O19  1  0.54876554  0.41718224  0.37532912  1
  O  O20  1  0.41723598  0.86845277  0.87538376  1
  O  O21  1  0.95792231  0.78413514  0.48304300  1
  O  O22  1  0.71058044  0.51706380  0.80556570  1
  O  O23  1  0.04207240  0.21586177  0.98307101  1
  O  O24  1  0.86843818  0.45122796  0.37534144  1
  O  O25  1  0.78417631  0.82621349  0.98307219  1
