# generated using pymatgen
data_MgAs2S2(OF3)4
_symmetry_space_group_name_H-M   'P 1'
_cell_length_a   10.68822800
_cell_length_b   10.38397000
_cell_length_c   12.62628903
_cell_angle_alpha   88.79851148
_cell_angle_beta   90.00000000
_cell_angle_gamma   90.00000000
_symmetry_Int_Tables_number   1
_chemical_formula_structural   MgAs2S2(OF3)4
_chemical_formula_sum   'Mg4 As8 S8 O16 F48'
_cell_volume   1401.03622964
_cell_formula_units_Z   4
loop_
 _symmetry_equiv_pos_site_id
 _symmetry_equiv_pos_as_xyz
  1  'x, y, z'
loop_
 _atom_site_type_symbol
 _atom_site_label
 _atom_site_symmetry_multiplicity
 _atom_site_fract_x
 _atom_site_fract_y
 _atom_site_fract_z
 _atom_site_occupancy
  Mg  Mg0  1  0.76998800  0.24386200  0.25388600  1
  Mg  Mg1  1  0.26998800  0.25613800  0.24611400  1
  Mg  Mg2  1  0.23001200  0.75613800  0.74611400  1
  Mg  Mg3  1  0.73001200  0.74386200  0.75388600  1
  As  As4  1  0.48714300  0.99140000  0.69089200  1
  As  As5  1  0.51285700  0.00860000  0.30910800  1
  As  As6  1  0.47543300  0.48669800  0.74234700  1
  As  As7  1  0.97543300  0.01330200  0.75765300  1
  As  As8  1  0.01285700  0.49140000  0.19089200  1
  As  As9  1  0.98714300  0.50860000  0.80910800  1
  As  As10  1  0.52456700  0.51330200  0.25765300  1
  As  As11  1  0.02456700  0.98669800  0.24234700  1
  S  S12  1  0.22743900  0.69894300  0.47589600  1
  S  S13  1  0.19072800  0.26645400  0.50921000  1
  S  S14  1  0.30927200  0.76645400  0.00921000  1
  S  S15  1  0.80927200  0.73354600  0.49079000  1
  S  S16  1  0.27256100  0.19894300  0.97589600  1
  S  S17  1  0.77256100  0.30105700  0.52410400  1
  S  S18  1  0.72743900  0.80105700  0.02410400  1
  S  S19  1  0.69072800  0.23354600  0.99079000  1
  O  O20  1  0.77024600  0.23659700  0.42216900  1
  O  O21  1  0.27024600  0.26340300  0.07783100  1
  O  O22  1  0.44213200  0.77797600  0.99240000  1
  O  O23  1  0.23174700  0.75386200  0.91433200  1
  O  O24  1  0.22625200  0.56024300  0.47908100  1
  O  O25  1  0.22975400  0.76340300  0.57783100  1
  O  O26  1  0.72625200  0.93975700  0.02091900  1
  O  O27  1  0.77374800  0.43975700  0.52091900  1
  O  O28  1  0.73174700  0.74613800  0.58566800  1
  O  O29  1  0.27374800  0.06024300  0.97908100  1
  O  O30  1  0.94213200  0.72202400  0.50760000  1
  O  O31  1  0.26825300  0.25386200  0.41433200  1
  O  O32  1  0.55786800  0.22202400  0.00760000  1
  O  O33  1  0.05786800  0.27797600  0.49240000  1
  O  O34  1  0.72975400  0.73659700  0.92216900  1
  O  O35  1  0.76825300  0.24613800  0.08566800  1
  F  F36  1  0.51122300  0.48283300  0.39353800  1
  F  F37  1  0.48937600  0.08301900  0.80514400  1
  F  F38  1  0.37339000  0.08901500  0.63107900  1
  F  F39  1  0.86176200  0.60530600  0.74522600  1
  F  F40  1  0.01615900  0.38130400  0.08817000  1
  F  F41  1  0.01062400  0.58301900  0.30514400  1
  F  F42  1  0.40794500  0.63089800  0.25860500  1
  F  F43  1  0.40288500  0.11917800  0.23989800  1
  F  F44  1  0.86305500  0.87852700  0.75441000  1
  F  F45  1  0.61371200  0.07460000  0.63556300  1
  F  F46  1  0.63823800  0.10530600  0.24522600  1
  F  F47  1  0.98877700  0.98283300  0.89353800  1
  F  F48  1  0.48384100  0.88130400  0.58817000  1
  F  F49  1  0.88628800  0.57460000  0.13556300  1
  F  F50  1  0.35246900  0.37898400  0.72515400  1
  F  F51  1  0.59205500  0.36910200  0.74139500  1
  F  F52  1  0.46225700  0.47800800  0.88040300  1
  F  F53  1  0.09620100  0.88926800  0.73907200  1
  F  F54  1  0.98937600  0.41698100  0.69485600  1
  F  F55  1  0.51615900  0.11869600  0.41183000  1
  F  F56  1  0.87339000  0.41098500  0.86892100  1
  F  F57  1  0.13694500  0.12147300  0.24559000  1
  F  F58  1  0.09711500  0.61917800  0.73989800  1
  F  F59  1  0.59711500  0.88082200  0.76010200  1
  F  F60  1  0.90379900  0.11073200  0.26092800  1
  F  F61  1  0.36176200  0.89469400  0.75477400  1
  F  F62  1  0.64753100  0.62101600  0.27484600  1
  F  F63  1  0.53774300  0.52199200  0.11959700  1
  F  F64  1  0.85246900  0.12101600  0.77484600  1
  F  F65  1  0.90288500  0.38082200  0.26010200  1
  F  F66  1  0.03774300  0.97800800  0.38040300  1
  F  F67  1  0.59620100  0.61073200  0.76092800  1
  F  F68  1  0.98384100  0.61869600  0.91183000  1
  F  F69  1  0.12661000  0.58901500  0.13107900  1
  F  F70  1  0.14753100  0.87898400  0.22515400  1
  F  F71  1  0.63694500  0.37852700  0.25441000  1
  F  F72  1  0.01122300  0.01716700  0.10646200  1
  F  F73  1  0.40379900  0.38926800  0.23907200  1
  F  F74  1  0.48877700  0.51716700  0.60646200  1
  F  F75  1  0.90794500  0.86910200  0.24139500  1
  F  F76  1  0.38628800  0.92540000  0.36443700  1
  F  F77  1  0.11371200  0.42540000  0.86443700  1
  F  F78  1  0.51062400  0.91698100  0.19485600  1
  F  F79  1  0.13823800  0.39469400  0.25477400  1
  F  F80  1  0.36305500  0.62147300  0.74559000  1
  F  F81  1  0.09205500  0.13089800  0.75860500  1
  F  F82  1  0.96225700  0.02199200  0.61959700  1
  F  F83  1  0.62661000  0.91098500  0.36892100  1
