# generated using pymatgen
data_Nd4Ti9O24
_symmetry_space_group_name_H-M   'P 1'
_cell_length_a   10.16954370
_cell_length_b   10.16954347
_cell_length_c   19.16134637
_cell_angle_alpha   104.85965066
_cell_angle_beta   104.85965032
_cell_angle_gamma   91.92497945
_symmetry_Int_Tables_number   1
_chemical_formula_structural   Nd4Ti9O24
_chemical_formula_sum   'Nd16 Ti36 O96'
_cell_volume   1840.82991700
_cell_formula_units_Z   4
loop_
 _symmetry_equiv_pos_site_id
 _symmetry_equiv_pos_as_xyz
  1  'x, y, z'
loop_
 _atom_site_type_symbol
 _atom_site_label
 _atom_site_symmetry_multiplicity
 _atom_site_fract_x
 _atom_site_fract_y
 _atom_site_fract_z
 _atom_site_occupancy
  Nd  Nd0  1  0.88418714  0.43187858  0.25745079  1
  Nd  Nd1  1  0.11581286  0.56812142  0.74254921  1
  Nd  Nd2  1  0.73231440  0.98231440  0.96462880  1
  Nd  Nd3  1  0.56812142  0.11581286  0.24254921  1
  Nd  Nd4  1  0.17442779  0.12673635  0.24254921  1
  Nd  Nd5  1  0.12673635  0.17442779  0.74254921  1
  Nd  Nd6  1  0.50375957  0.75375957  0.50751915  1
  Nd  Nd7  1  0.82557221  0.87326365  0.75745079  1
  Nd  Nd8  1  0.98231440  0.73231440  0.46462880  1
  Nd  Nd9  1  0.01768560  0.26768560  0.53537120  1
  Nd  Nd10  1  0.75375957  0.50375957  0.00751915  1
  Nd  Nd11  1  0.87326365  0.82557221  0.25745079  1
  Nd  Nd12  1  0.26768560  0.01768560  0.03537120  1
  Nd  Nd13  1  0.24624043  0.49624043  0.99248085  1
  Nd  Nd14  1  0.43187858  0.88418714  0.75745079  1
  Nd  Nd15  1  0.49624043  0.24624043  0.49248085  1
  Ti  Ti16  1  0.42863079  0.73999955  0.92442029  1
  Ti  Ti17  1  0.26000045  0.57136921  0.57557971  1
  Ti  Ti18  1  0.57136921  0.26000045  0.07557971  1
  Ti  Ti19  1  0.91601223  0.40248716  0.84193784  1
  Ti  Ti20  1  0.57407440  0.56054932  0.15806216  1
  Ti  Ti21  1  0.80401787  0.55275903  0.59032796  1
  Ti  Ti22  1  0.35549874  0.35286097  0.16907214  1
  Ti  Ti23  1  0.59751284  0.08398777  0.65806216  1
  Ti  Ti24  1  0.43945068  0.42592560  0.34193784  1
  Ti  Ti25  1  0.19598213  0.44724097  0.40967204  1
  Ti  Ti26  1  0.99578950  0.18442074  0.92442029  1
  Ti  Ti27  1  0.91988976  0.16988976  0.33977952  1
  Ti  Ti28  1  0.31357340  0.81621116  0.16907214  1
  Ti  Ti29  1  0.55275903  0.80401787  0.09032796  1
  Ti  Ti30  1  0.64713903  0.64450126  0.33092786  1
  Ti  Ti31  1  0.83011024  0.08011024  0.16022048  1
  Ti  Ti32  1  0.81557926  0.00421050  0.57557971  1
  Ti  Ti33  1  0.96243107  0.71368991  0.90967204  1
  Ti  Ti34  1  0.71368991  0.96243107  0.40967204  1
  Ti  Ti35  1  0.08398777  0.59751284  0.15806216  1
  Ti  Ti36  1  0.00421050  0.81557926  0.07557971  1
  Ti  Ti37  1  0.42592560  0.43945068  0.84193784  1
  Ti  Ti38  1  0.08011024  0.83011024  0.66022048  1
  Ti  Ti39  1  0.73999955  0.42863079  0.42442029  1
  Ti  Ti40  1  0.64450126  0.64713903  0.83092786  1
  Ti  Ti41  1  0.28631009  0.03756893  0.59032796  1
  Ti  Ti42  1  0.44724097  0.19598213  0.90967204  1
  Ti  Ti43  1  0.16988976  0.91988976  0.83977952  1
  Ti  Ti44  1  0.18378884  0.68642660  0.33092786  1
  Ti  Ti45  1  0.18442074  0.99578950  0.42442029  1
  Ti  Ti46  1  0.68642660  0.18378884  0.83092786  1
  Ti  Ti47  1  0.56054932  0.57407440  0.65806216  1
  Ti  Ti48  1  0.03756893  0.28631009  0.09032796  1
  Ti  Ti49  1  0.81621116  0.31357340  0.66907214  1
  Ti  Ti50  1  0.35286097  0.35549874  0.66907214  1
  Ti  Ti51  1  0.40248716  0.91601223  0.34193784  1
  O  O52  1  0.39366279  0.97388318  0.25390012  1
  O  O53  1  0.04582422  0.11107681  0.41542748  1
  O  O54  1  0.84208382  0.07742657  0.49002116  1
  O  O55  1  0.93667569  0.69631202  0.66898669  1
  O  O56  1  0.36096007  0.35096942  0.40466276  1
  O  O57  1  0.45629731  0.94630666  0.59533724  1
  O  O58  1  0.08267901  0.58412555  0.38257567  1
  O  O59  1  0.91732099  0.41587445  0.61742433  1
  O  O60  1  0.29144047  0.53817283  0.33708084  1
  O  O61  1  0.58412555  0.08267901  0.88257567  1
  O  O62  1  0.14793734  0.41259459  0.49002116  1
  O  O63  1  0.95417578  0.88892319  0.58457252  1
  O  O64  1  0.68831670  0.40695643  0.14828646  1
  O  O65  1  0.41587445  0.91732099  0.11742433  1
  O  O66  1  0.74133003  0.95996977  0.64828646  1
  O  O67  1  0.58740541  0.85206266  0.00997884  1
  O  O68  1  0.42238856  0.42285695  0.09465046  1
  O  O69  1  0.79890802  0.54564038  0.83708084  1
  O  O70  1  0.13039674  0.69564933  0.58457252  1
  O  O71  1  0.92257343  0.15791618  0.00997884  1
  O  O72  1  0.06482808  0.83000907  0.35888381  1
  O  O73  1  0.88892319  0.95417578  0.08457252  1
  O  O74  1  0.32820649  0.82773810  0.40534954  1
  O  O75  1  0.39911750  0.68309125  0.00660542  1
  O  O76  1  0.59304357  0.31168330  0.35171354  1
  O  O77  1  0.79845012  0.79989667  0.88257567  1
  O  O78  1  0.10748792  0.32351417  0.00660542  1
  O  O79  1  0.05369334  0.54370269  0.90466276  1
  O  O80  1  0.36023733  0.28001694  0.25390012  1
  O  O81  1  0.54564038  0.79890802  0.33708084  1
  O  O82  1  0.32351417  0.10748792  0.50660542  1
  O  O83  1  0.57714305  0.57761144  0.40534954  1
  O  O84  1  0.85206266  0.58740541  0.50997884  1
  O  O85  1  0.02611682  0.60633721  0.24609988  1
  O  O86  1  0.79989667  0.79845012  0.38257567  1
  O  O87  1  0.31168330  0.59304357  0.85171354  1
  O  O88  1  0.20010333  0.20154988  0.61742433  1
  O  O89  1  0.45435962  0.20109198  0.66291916  1
  O  O90  1  0.52887474  0.79405573  0.85888381  1
  O  O91  1  0.60088250  0.31690875  0.99339458  1
  O  O92  1  0.46182717  0.70855953  0.16291916  1
  O  O93  1  0.93517192  0.16999093  0.64111619  1
  O  O94  1  0.03705007  0.96294993  0.75000000  1
  O  O95  1  0.54370269  0.05369334  0.40466276  1
  O  O96  1  0.30368798  0.06332431  0.83101331  1
  O  O97  1  0.63976267  0.71998306  0.74609988  1
  O  O98  1  0.86960326  0.30435067  0.41542748  1
  O  O99  1  0.50109964  0.49890036  0.25000000  1
  O  O100  1  0.75109964  0.24890036  0.75000000  1
  O  O101  1  0.15791618  0.92257343  0.50997884  1
  O  O102  1  0.47112526  0.20594427  0.14111619  1
  O  O103  1  0.28001694  0.36023733  0.75390012  1
  O  O104  1  0.70855953  0.46182717  0.66291916  1
  O  O105  1  0.40695643  0.68831670  0.64828646  1
  O  O106  1  0.68309125  0.39911750  0.50660542  1
  O  O107  1  0.20109198  0.45435962  0.16291916  1
  O  O108  1  0.02732533  0.76768900  0.83101331  1
  O  O109  1  0.17226190  0.67179351  0.09465046  1
  O  O110  1  0.78705007  0.21294993  0.25000000  1
  O  O111  1  0.67648583  0.89251208  0.49339458  1
  O  O112  1  0.06332431  0.30368798  0.33101331  1
  O  O113  1  0.49890036  0.50109964  0.75000000  1
  O  O114  1  0.71998306  0.63976267  0.24609988  1
  O  O115  1  0.42285695  0.42238856  0.59465046  1
  O  O116  1  0.67179351  0.17226190  0.59465046  1
  O  O117  1  0.30435067  0.86960326  0.91542748  1
  O  O118  1  0.20594427  0.47112526  0.64111619  1
  O  O119  1  0.69564933  0.13039674  0.08457252  1
  O  O120  1  0.23231100  0.97267467  0.66898669  1
  O  O121  1  0.97388318  0.39366279  0.75390012  1
  O  O122  1  0.35096942  0.36096007  0.90466276  1
  O  O123  1  0.95996977  0.74133003  0.14828646  1
  O  O124  1  0.04003023  0.25866997  0.85171354  1
  O  O125  1  0.24890036  0.75109964  0.25000000  1
  O  O126  1  0.21294993  0.78705007  0.75000000  1
  O  O127  1  0.31690875  0.60088250  0.49339458  1
  O  O128  1  0.41259459  0.14793734  0.99002116  1
  O  O129  1  0.25866997  0.04003023  0.35171354  1
  O  O130  1  0.60633721  0.02611682  0.74609988  1
  O  O131  1  0.63903993  0.64903058  0.59533724  1
  O  O132  1  0.07742657  0.84208382  0.99002116  1
  O  O133  1  0.11107681  0.04582422  0.91542748  1
  O  O134  1  0.79405573  0.52887474  0.35888381  1
  O  O135  1  0.53817283  0.29144047  0.83708084  1
  O  O136  1  0.96294993  0.03705007  0.25000000  1
  O  O137  1  0.16999093  0.93517192  0.14111619  1
  O  O138  1  0.89251208  0.67648583  0.99339458  1
  O  O139  1  0.57761144  0.57714305  0.90534954  1
  O  O140  1  0.20154988  0.20010333  0.11742433  1
  O  O141  1  0.76768900  0.02732533  0.33101331  1
  O  O142  1  0.94630666  0.45629731  0.09533724  1
  O  O143  1  0.69631202  0.93667569  0.16898669  1
  O  O144  1  0.82773810  0.32820649  0.90534954  1
  O  O145  1  0.97267467  0.23231100  0.16898669  1
  O  O146  1  0.83000907  0.06482808  0.85888381  1
  O  O147  1  0.64903058  0.63903993  0.09533724  1
