# generated using pymatgen
data_Rb2AgAu3I8
_symmetry_space_group_name_H-M   'P 1'
_cell_length_a   7.77400699
_cell_length_b   7.77400699
_cell_length_c   21.28989761
_cell_angle_alpha   79.59737399
_cell_angle_beta   79.59737399
_cell_angle_gamma   58.67563900
_symmetry_Int_Tables_number   1
_chemical_formula_structural   Rb2AgAu3I8
_chemical_formula_sum   'Rb4 Ag2 Au6 I16'
_cell_volume   1075.27689995
_cell_formula_units_Z   2
loop_
 _symmetry_equiv_pos_site_id
 _symmetry_equiv_pos_as_xyz
  1  'x, y, z'
loop_
 _atom_site_type_symbol
 _atom_site_label
 _atom_site_symmetry_multiplicity
 _atom_site_fract_x
 _atom_site_fract_y
 _atom_site_fract_z
 _atom_site_occupancy
  Rb  Rb0  1  0.32532152  0.26734300  0.59388704  1
  Rb  Rb1  1  0.26734300  0.32532152  0.09388704  1
  Rb  Rb2  1  0.67467848  0.73265700  0.40611296  1
  Rb  Rb3  1  0.73265700  0.67467848  0.90611296  1
  Ag  Ag4  1  0.98447125  0.01552875  0.25000000  1
  Ag  Ag5  1  0.01552875  0.98447125  0.75000000  1
  Au  Au6  1  0.40124397  0.40830581  0.80166794  1
  Au  Au7  1  0.59875603  0.59169419  0.19833206  1
  Au  Au8  1  -0.00000000  0.00000000  0.00000000  1
  Au  Au9  1  0.59169419  0.59875603  0.69833206  1
  Au  Au10  1  0.40830581  0.40124397  0.30166794  1
  Au  Au11  1  -0.00000000  0.00000000  0.50000000  1
  I  I12  1  0.59274804  0.06517498  0.24889729  1
  I  I13  1  0.15944524  0.22287127  0.43681829  1
  I  I14  1  0.06517498  0.59274804  0.74889729  1
  I  I15  1  0.19564655  0.73389692  0.35576233  1
  I  I16  1  0.77712873  0.84055476  0.06318171  1
  I  I17  1  0.80435345  0.26610308  0.64423767  1
  I  I18  1  0.32600143  0.77440421  0.56460213  1
  I  I19  1  0.22287127  0.15944524  0.93681829  1
  I  I20  1  0.93482502  0.40725196  0.25110271  1
  I  I21  1  0.77440421  0.32600143  0.06460213  1
  I  I22  1  0.84055476  0.77712873  0.56318171  1
  I  I23  1  0.67399857  0.22559579  0.43539787  1
  I  I24  1  0.26610308  0.80435345  0.14423767  1
  I  I25  1  0.22559579  0.67399857  0.93539787  1
  I  I26  1  0.40725196  0.93482502  0.75110271  1
  I  I27  1  0.73389692  0.19564655  0.85576233  1
