# generated using pymatgen
data_Cs2PbO2
_symmetry_space_group_name_H-M   'P 1'
_cell_length_a   7.86817695
_cell_length_b   8.14940633
_cell_length_c   10.96008745
_cell_angle_alpha   84.55272704
_cell_angle_beta   70.55910592
_cell_angle_gamma   61.06835448
_symmetry_Int_Tables_number   1
_chemical_formula_structural   Cs2PbO2
_chemical_formula_sum   'Cs8 Pb4 O8'
_cell_volume   578.13377325
_cell_formula_units_Z   4
loop_
 _symmetry_equiv_pos_site_id
 _symmetry_equiv_pos_as_xyz
  1  'x, y, z'
loop_
 _atom_site_type_symbol
 _atom_site_label
 _atom_site_symmetry_multiplicity
 _atom_site_fract_x
 _atom_site_fract_y
 _atom_site_fract_z
 _atom_site_occupancy
  Cs  Cs0  1  0.24629287  0.25390381  0.49406466  1
  Cs  Cs1  1  0.06634702  0.94052600  0.18382529  1
  Cs  Cs2  1  0.93655798  0.54931366  0.82493750  1
  Cs  Cs3  1  0.93365298  0.05947500  0.81617471  1
  Cs  Cs4  1  0.60229938  0.43109713  0.14170769  1
  Cs  Cs5  1  0.06344202  0.45068634  0.17506250  1
  Cs  Cs6  1  0.39770062  0.56890287  0.85829231  1
  Cs  Cs7  1  0.75370713  0.74609619  0.50593534  1
  Pb  Pb8  1  0.59580140  0.94169430  0.12192486  1
  Pb  Pb9  1  0.30925034  0.69742041  0.47197130  1
  Pb  Pb10  1  0.69074966  0.30257959  0.52802870  1
  Pb  Pb11  1  0.40419860  0.05830570  0.87807514  1
  O  O12  1  0.49390873  0.81708163  0.00686807  1
  O  O13  1  0.79603049  0.41116120  0.63954624  1
  O  O14  1  0.91769754  0.79214816  0.02297240  1
  O  O15  1  0.50609127  0.18291837  0.99313193  1
  O  O16  1  0.08230246  0.20785184  0.97702760  1
  O  O17  1  0.20396951  0.58883880  0.36045376  1
  O  O18  1  0.65002791  0.51406887  0.37981054  1
  O  O19  1  0.34997209  0.48593113  0.62018946  1
