# generated using pymatgen
data_Li2Ge7O15
_symmetry_space_group_name_H-M   'P 1'
_cell_length_a   7.38836870
_cell_length_b   9.74004404
_cell_length_c   16.78648787
_cell_angle_alpha   90.00000000
_cell_angle_beta   90.00000000
_cell_angle_gamma   90.00000000
_symmetry_Int_Tables_number   1
_chemical_formula_structural   Li2Ge7O15
_chemical_formula_sum   'Li8 Ge28 O60'
_cell_volume   1208.00663966
_cell_formula_units_Z   4
loop_
 _symmetry_equiv_pos_site_id
 _symmetry_equiv_pos_as_xyz
  1  'x, y, z'
loop_
 _atom_site_type_symbol
 _atom_site_label
 _atom_site_symmetry_multiplicity
 _atom_site_fract_x
 _atom_site_fract_y
 _atom_site_fract_z
 _atom_site_occupancy
  Li  Li0  1  0.50000000  0.75000000  0.74046256  1
  Li  Li1  1  0.00000000  0.25000000  0.75953744  1
  Li  Li2  1  0.50000000  0.25000000  0.25953744  1
  Li  Li3  1  0.00000000  0.75000000  0.24046256  1
  Li  Li4  1  0.00000000  0.50000000  0.50000000  1
  Li  Li5  1  0.50000000  0.50000000  0.00000000  1
  Li  Li6  1  0.50000000  -0.00000000  0.00000000  1
  Li  Li7  1  0.00000000  -0.00000000  0.50000000  1
  Ge  Ge8  1  0.71436917  0.02845959  0.65554207  1
  Ge  Ge9  1  0.21436917  0.97154041  0.84445793  1
  Ge  Ge10  1  0.78563083  0.52845959  0.84445793  1
  Ge  Ge11  1  0.28563083  0.47154041  0.65554207  1
  Ge  Ge12  1  0.28563083  0.97154041  0.34445793  1
  Ge  Ge13  1  0.78563083  0.02845959  0.15554207  1
  Ge  Ge14  1  0.21436917  0.47154041  0.15554207  1
  Ge  Ge15  1  0.71436917  0.52845959  0.34445793  1
  Ge  Ge16  1  0.71701621  0.46725577  0.65965065  1
  Ge  Ge17  1  0.21701621  0.53274423  0.84034935  1
  Ge  Ge18  1  0.78298379  0.96725577  0.84034935  1
  Ge  Ge19  1  0.28298379  0.03274423  0.65965065  1
  Ge  Ge20  1  0.28298379  0.53274423  0.34034935  1
  Ge  Ge21  1  0.78298379  0.46725577  0.15965065  1
  Ge  Ge22  1  0.21701621  0.03274423  0.15965065  1
  Ge  Ge23  1  0.71701621  0.96725577  0.34034935  1
  Ge  Ge24  1  0.78543761  0.25107628  0.94113717  1
  Ge  Ge25  1  0.28543761  0.74892372  0.55886283  1
  Ge  Ge26  1  0.71456239  0.75107628  0.55886283  1
  Ge  Ge27  1  0.21456239  0.24892372  0.94113717  1
  Ge  Ge28  1  0.21456239  0.74892372  0.05886283  1
  Ge  Ge29  1  0.71456239  0.25107628  0.44113717  1
  Ge  Ge30  1  0.28543761  0.24892372  0.44113717  1
  Ge  Ge31  1  0.78543761  0.75107628  0.05886283  1
  Ge  Ge32  1  0.50000000  0.75000000  0.91315144  1
  Ge  Ge33  1  0.00000000  0.25000000  0.58684856  1
  Ge  Ge34  1  0.50000000  0.25000000  0.08684856  1
  Ge  Ge35  1  0.00000000  0.75000000  0.41315144  1
  O  O36  1  0.85822371  0.33265870  0.50698622  1
  O  O37  1  0.35822371  0.66734130  0.99301378  1
  O  O38  1  0.64177629  0.83265870  0.99301378  1
  O  O39  1  0.14177629  0.16734130  0.50698622  1
  O  O40  1  0.14177629  0.66734130  0.49301378  1
  O  O41  1  0.64177629  0.33265870  0.00698622  1
  O  O42  1  0.35822371  0.16734130  0.00698622  1
  O  O43  1  0.85822371  0.83265870  0.49301378  1
  O  O44  1  0.85565261  0.09151005  0.58234082  1
  O  O45  1  0.35565261  0.90848995  0.91765918  1
  O  O46  1  0.64434739  0.59151005  0.91765918  1
  O  O47  1  0.14434739  0.40848995  0.58234082  1
  O  O48  1  0.14434739  0.90848995  0.41765918  1
  O  O49  1  0.64434739  0.09151005  0.08234082  1
  O  O50  1  0.35565261  0.40848995  0.08234082  1
  O  O51  1  0.85565261  0.59151005  0.41765918  1
  O  O52  1  0.50116554  0.40408991  0.64056663  1
  O  O53  1  0.00116554  0.59591009  0.85943337  1
  O  O54  1  0.99883446  0.90408991  0.85943337  1
  O  O55  1  0.49883446  0.09591009  0.64056663  1
  O  O56  1  0.49883446  0.59591009  0.35943337  1
  O  O57  1  0.99883446  0.40408991  0.14056663  1
  O  O58  1  0.00116554  0.09591009  0.14056663  1
  O  O59  1  0.50116554  0.90408991  0.35943337  1
  O  O60  1  0.86212118  0.32903456  0.66958482  1
  O  O61  1  0.36212118  0.67096544  0.83041518  1
  O  O62  1  0.63787882  0.82903456  0.83041518  1
  O  O63  1  0.13787882  0.17096544  0.66958482  1
  O  O64  1  0.13787882  0.67096544  0.33041518  1
  O  O65  1  0.63787882  0.32903456  0.16958482  1
  O  O66  1  0.36212118  0.17096544  0.16958482  1
  O  O67  1  0.86212118  0.82903456  0.33041518  1
  O  O68  1  0.80082516  0.06405600  0.75118275  1
  O  O69  1  0.30082516  0.93594400  0.74881725  1
  O  O70  1  0.69917484  0.56405600  0.74881725  1
  O  O71  1  0.19917484  0.43594400  0.75118275  1
  O  O72  1  0.19917484  0.93594400  0.24881725  1
  O  O73  1  0.69917484  0.06405600  0.25118275  1
  O  O74  1  0.30082516  0.43594400  0.25118275  1
  O  O75  1  0.80082516  0.56405600  0.24881725  1
  O  O76  1  0.81034982  0.34651389  0.85083433  1
  O  O77  1  0.31034982  0.65348611  0.64916567  1
  O  O78  1  0.68965018  0.84651389  0.64916567  1
  O  O79  1  0.18965018  0.15348611  0.85083433  1
  O  O80  1  0.18965018  0.65348611  0.14916567  1
  O  O81  1  0.68965018  0.34651389  0.35083433  1
  O  O82  1  0.31034982  0.15348611  0.35083433  1
  O  O83  1  0.81034982  0.84651389  0.14916567  1
  O  O84  1  0.70677770  0.08793656  0.91159055  1
  O  O85  1  0.20677770  0.91206344  0.58840945  1
  O  O86  1  0.79322230  0.58793656  0.58840945  1
  O  O87  1  0.29322230  0.41206344  0.91159055  1
  O  O88  1  0.29322230  0.91206344  0.08840945  1
  O  O89  1  0.79322230  0.08793656  0.41159055  1
  O  O90  1  0.20677770  0.41206344  0.41159055  1
  O  O91  1  0.70677770  0.58793656  0.08840945  1
  O  O92  1  0.50000000  0.75000000  0.51568004  1
  O  O93  1  0.00000000  0.25000000  0.98431996  1
  O  O94  1  0.50000000  0.25000000  0.48431996  1
  O  O95  1  0.00000000  0.75000000  0.01568004  1
