# generated using pymatgen
data_CaO
_symmetry_space_group_name_H-M   'P 1'
_cell_length_a   3.99197585
_cell_length_b   3.99197580
_cell_length_c   4.78484001
_cell_angle_alpha   90.00000000
_cell_angle_beta   90.00000000
_cell_angle_gamma   119.99999205
_symmetry_Int_Tables_number   1
_chemical_formula_structural   CaO
_chemical_formula_sum   'Ca2 O2'
_cell_volume   66.03495594
_cell_formula_units_Z   2
loop_
 _symmetry_equiv_pos_site_id
 _symmetry_equiv_pos_as_xyz
  1  'x, y, z'
loop_
 _atom_site_type_symbol
 _atom_site_label
 _atom_site_symmetry_multiplicity
 _atom_site_fract_x
 _atom_site_fract_y
 _atom_site_fract_z
 _atom_site_occupancy
  Ca  Ca0  1  0.33333300  0.66666700  0.99987431  1
  Ca  Ca1  1  0.66666700  0.33333300  0.49987431  1
  O  O2  1  0.33333300  0.66666700  0.49982569  1
  O  O3  1  0.66666700  0.33333300  0.99982569  1
