# generated using pymatgen
data_Pr10S19
_symmetry_space_group_name_H-M   'P 1'
_cell_length_a   9.03818614
_cell_length_b   9.03818614
_cell_length_c   16.31251838
_cell_angle_alpha   90.00000000
_cell_angle_beta   90.00000000
_cell_angle_gamma   90.00000000
_symmetry_Int_Tables_number   1
_chemical_formula_structural   Pr10S19
_chemical_formula_sum   'Pr20 S38'
_cell_volume   1332.55019397
_cell_formula_units_Z   2
loop_
 _symmetry_equiv_pos_site_id
 _symmetry_equiv_pos_as_xyz
  1  'x, y, z'
loop_
 _atom_site_type_symbol
 _atom_site_label
 _atom_site_symmetry_multiplicity
 _atom_site_fract_x
 _atom_site_fract_y
 _atom_site_fract_z
 _atom_site_occupancy
  Pr  Pr0  1  0.75000000  0.25000000  0.88621063  1
  Pr  Pr1  1  0.35424598  0.44404337  0.89752255  1
  Pr  Pr2  1  0.85424598  0.94404337  0.10247745  1
  Pr  Pr3  1  0.34815347  0.45914328  0.37714180  1
  Pr  Pr4  1  0.84815247  0.95914328  0.62285820  1
  Pr  Pr5  1  0.44404337  0.14575402  0.60247745  1
  Pr  Pr6  1  0.75000000  0.25000000  0.38621063  1
  Pr  Pr7  1  0.25000000  0.75000000  0.11378937  1
  Pr  Pr8  1  0.05595663  0.35424598  0.60247745  1
  Pr  Pr9  1  0.54085672  0.84815247  0.87714180  1
  Pr  Pr10  1  0.64575402  0.55595663  0.10247745  1
  Pr  Pr11  1  0.65184753  0.54085672  0.62285820  1
  Pr  Pr12  1  0.15184653  0.04085672  0.37714180  1
  Pr  Pr13  1  0.14575402  0.05595663  0.89752255  1
  Pr  Pr14  1  0.94404337  0.64575402  0.39752255  1
  Pr  Pr15  1  0.45914328  0.15184653  0.12285820  1
  Pr  Pr16  1  0.95914328  0.65184753  0.87714180  1
  Pr  Pr17  1  0.25000000  0.75000000  0.61378937  1
  Pr  Pr18  1  0.55595663  0.85424598  0.39752255  1
  Pr  Pr19  1  0.04085672  0.34815347  0.12285820  1
  S  S20  1  0.25000000  0.75000000  0.93389308  1
  S  S21  1  0.96990068  0.19852266  0.75103363  1
  S  S22  1  0.88910381  0.41991280  0.75009874  1
  S  S23  1  0.84828774  0.95087979  0.92603526  1
  S  S24  1  0.80147734  0.46990068  0.25103363  1
  S  S25  1  0.95087979  0.65171226  0.57396474  1
  S  S26  1  0.30147734  0.96990068  0.74896637  1
  S  S27  1  0.15171226  0.04912021  0.07396474  1
  S  S28  1  0.91991280  0.11089619  0.25009874  1
  S  S29  1  0.03009932  0.80147734  0.24896637  1
  S  S30  1  0.38910381  0.91991280  0.24990126  1
  S  S31  1  0.25000000  0.25000000  0.25000000  1
  S  S32  1  0.14805366  0.05300378  0.56192689  1
  S  S33  1  0.45087979  0.15171226  0.42603526  1
  S  S34  1  0.55300378  0.85194634  0.06192689  1
  S  S35  1  0.46990068  0.69852266  0.24896637  1
  S  S36  1  0.35194634  0.44699622  0.56192689  1
  S  S37  1  0.54912021  0.84828774  0.57396474  1
  S  S38  1  0.53009932  0.30147734  0.75103363  1
  S  S39  1  0.11089619  0.58008720  0.24990126  1
  S  S40  1  0.19852266  0.53009932  0.74896637  1
  S  S41  1  0.34828774  0.45087979  0.07396474  1
  S  S42  1  0.58008720  0.38910381  0.25009874  1
  S  S43  1  0.75000000  0.25000000  0.56610692  1
  S  S44  1  0.41991280  0.61089619  0.74990126  1
  S  S45  1  0.25000000  0.75000000  0.43389308  1
  S  S46  1  0.08008720  0.88910381  0.74990126  1
  S  S47  1  0.64805366  0.55300378  0.43807311  1
  S  S48  1  0.61089619  0.08008720  0.75009874  1
  S  S49  1  0.85194634  0.94699622  0.43807311  1
  S  S50  1  0.69852266  0.03009932  0.25103363  1
  S  S51  1  0.04912021  0.34828774  0.42603526  1
  S  S52  1  0.44699622  0.14805366  0.93807311  1
  S  S53  1  0.94699622  0.64805366  0.06192689  1
  S  S54  1  0.65171226  0.54912021  0.92603526  1
  S  S55  1  0.75000000  0.25000000  0.06610692  1
  S  S56  1  0.75000000  0.75000000  0.75000000  1
  S  S57  1  0.05300378  0.35194634  0.93807311  1
