# generated using pymatgen
data_Cd(AuF6)2
_symmetry_space_group_name_H-M   'P 1'
_cell_length_a   7.13628436
_cell_length_b   7.13628436
_cell_length_c   10.00062566
_cell_angle_alpha   67.55666462
_cell_angle_beta   67.55666462
_cell_angle_gamma   75.10128265
_symmetry_Int_Tables_number   1
_chemical_formula_structural   Cd(AuF6)2
_chemical_formula_sum   'Cd2 Au4 F24'
_cell_volume   431.35558648
_cell_formula_units_Z   2
loop_
 _symmetry_equiv_pos_site_id
 _symmetry_equiv_pos_as_xyz
  1  'x, y, z'
loop_
 _atom_site_type_symbol
 _atom_site_label
 _atom_site_symmetry_multiplicity
 _atom_site_fract_x
 _atom_site_fract_y
 _atom_site_fract_z
 _atom_site_occupancy
  Cd  Cd0  1  0.18194603  0.81805397  0.75000000  1
  Cd  Cd1  1  0.81805397  0.18194603  0.25000000  1
  Au  Au2  1  0.24637606  0.25480605  0.36686152  1
  Au  Au3  1  0.25480605  0.24637606  0.86686152  1
  Au  Au4  1  0.75362394  0.74519395  0.63313848  1
  Au  Au5  1  0.74519395  0.75362394  0.13313848  1
  F  F6  1  0.85666663  0.87202191  0.22867831  1
  F  F7  1  0.14333337  0.12797809  0.77132169  1
  F  F8  1  0.30292057  0.97786324  0.49961125  1
  F  F9  1  0.98417265  0.27948283  0.51227878  1
  F  F10  1  0.27948283  0.98417265  0.01227878  1
  F  F11  1  0.37132385  0.35650933  0.45753661  1
  F  F12  1  0.35650933  0.37132385  0.95753661  1
  F  F13  1  0.87202191  0.85666663  0.72867831  1
  F  F14  1  0.77690943  0.48441202  0.28156058  1
  F  F15  1  0.02213676  0.69707943  0.00038875  1
  F  F16  1  0.69707943  0.02213676  0.50038875  1
  F  F17  1  0.97786324  0.30292057  -0.00038875  1
  F  F18  1  0.52190374  0.19453054  0.73634262  1
  F  F19  1  0.62867615  0.64349067  0.54246339  1
  F  F20  1  0.22309057  0.51558798  0.71843942  1
  F  F21  1  0.64349067  0.62867615  0.04246339  1
  F  F22  1  0.48441202  0.77690943  0.78156058  1
  F  F23  1  0.80546946  0.47809626  0.76365738  1
  F  F24  1  0.51558798  0.22309057  0.21843942  1
  F  F25  1  0.47809626  0.80546946  0.26365738  1
  F  F26  1  0.19453054  0.52190374  0.23634262  1
  F  F27  1  0.72051717  0.01582735  0.98772122  1
  F  F28  1  0.12797809  0.14333337  0.27132169  1
  F  F29  1  0.01582735  0.72051717  0.48772122  1
