# generated using pymatgen
data_CdI2
_symmetry_space_group_name_H-M   'P 1'
_cell_length_a   4.28536610
_cell_length_b   4.28536611
_cell_length_c   92.44578780
_cell_angle_alpha   90.00000000
_cell_angle_beta   90.00000000
_cell_angle_gamma   119.99999194
_symmetry_Int_Tables_number   1
_chemical_formula_structural   CdI2
_chemical_formula_sum   'Cd13 I26'
_cell_volume   1470.25835135
_cell_formula_units_Z   13
loop_
 _symmetry_equiv_pos_site_id
 _symmetry_equiv_pos_as_xyz
  1  'x, y, z'
loop_
 _atom_site_type_symbol
 _atom_site_label
 _atom_site_symmetry_multiplicity
 _atom_site_fract_x
 _atom_site_fract_y
 _atom_site_fract_z
 _atom_site_occupancy
  Cd  Cd0  1  0.66666700  0.33333300  0.71160694  1
  Cd  Cd1  1  -0.00000000  -0.00000000  0.86524039  1
  Cd  Cd2  1  0.66666700  0.33333300  0.17299708  1
  Cd  Cd3  1  0.66666700  0.33333300  0.40366803  1
  Cd  Cd4  1  0.66666700  0.33333300  0.32695126  1
  Cd  Cd5  1  0.00000000  -0.00000000  0.94217542  1
  Cd  Cd6  1  0.66666700  0.33333300  0.78865735  1
  Cd  Cd7  1  -0.00000000  -0.00000000  0.48078012  1
  Cd  Cd8  1  -0.00000000  -0.00000000  0.09608141  1
  Cd  Cd9  1  0.00000000  -0.00000000  0.63476375  1
  Cd  Cd10  1  0.00000000  -0.00000000  0.25007086  1
  Cd  Cd11  1  0.66666700  0.33333300  0.55781890  1
  Cd  Cd12  1  0.66666700  0.33333300  0.01911596  1
  I  I13  1  0.33333300  0.66666700  0.80729771  1
  I  I14  1  0.66666700  0.33333300  0.92353751  1
  I  I15  1  -0.00000000  -0.00000000  0.53918522  1
  I  I16  1  -0.00000000  -0.00000000  0.30832414  1
  I  I17  1  0.33333300  0.66666700  0.65340082  1
  I  I18  1  -0.00000000  -0.00000000  0.15436458  1
  I  I19  1  0.33333300  0.66666700  0.34561612  1
  I  I20  1  0.33333300  0.66666700  0.88389291  1
  I  I21  1  0.33333300  0.66666700  0.03781295  1
  I  I22  1  0.33333300  0.66666700  0.96080914  1
  I  I23  1  0.66666700  0.33333300  0.23145872  1
  I  I24  1  0.66666700  0.33333300  0.07745688  1
  I  I25  1  -0.00000000  -0.00000000  0.77005205  1
  I  I26  1  -0.00000000  -0.00000000  0.69303259  1
  I  I27  1  0.33333300  0.66666700  0.42220893  1
  I  I28  1  0.66666700  0.33333300  0.84665199  1
  I  I29  1  0.33333300  0.66666700  0.26869848  1
  I  I30  1  -0.00000000  -0.00000000  0.00043423  1
  I  I31  1  0.33333300  0.66666700  0.11474939  1
  I  I32  1  0.33333300  0.66666700  0.19157916  1
  I  I33  1  0.33333300  0.66666700  0.73017902  1
  I  I34  1  0.66666700  0.33333300  0.46216608  1
  I  I35  1  0.66666700  0.33333300  0.61610804  1
  I  I36  1  0.33333300  0.66666700  0.57648477  1
  I  I37  1  -0.00000000  -0.00000000  0.38516960  1
  I  I38  1  0.33333300  0.66666700  0.49940252  1
