# generated using pymatgen
data_K3Bi(PS4)2
_symmetry_space_group_name_H-M   'P 1'
_cell_length_a   6.86589835
_cell_length_b   9.09030379
_cell_length_c   24.08288089
_cell_angle_alpha   90.00000000
_cell_angle_beta   90.00000000
_cell_angle_gamma   90.00000000
_symmetry_Int_Tables_number   1
_chemical_formula_structural   K3Bi(PS4)2
_chemical_formula_sum   'K12 Bi4 P8 S32'
_cell_volume   1503.08729645
_cell_formula_units_Z   4
loop_
 _symmetry_equiv_pos_site_id
 _symmetry_equiv_pos_as_xyz
  1  'x, y, z'
loop_
 _atom_site_type_symbol
 _atom_site_label
 _atom_site_symmetry_multiplicity
 _atom_site_fract_x
 _atom_site_fract_y
 _atom_site_fract_z
 _atom_site_occupancy
  K  K0  1  0.98529254  0.74681939  0.91939480  1
  K  K1  1  0.01470746  0.24681939  0.58060520  1
  K  K2  1  0.48896159  0.47683024  0.81114941  1
  K  K3  1  0.51103841  0.97683024  0.68885059  1
  K  K4  1  0.00270848  0.09121376  0.78536947  1
  K  K5  1  0.49729152  0.90878624  0.28536947  1
  K  K6  1  0.48529254  0.75318061  0.08060520  1
  K  K7  1  0.99729152  0.59121376  0.71463053  1
  K  K8  1  0.98896159  0.02316976  0.18885059  1
  K  K9  1  0.50270848  0.40878624  0.21463053  1
  K  K10  1  0.01103841  0.52316976  0.31114941  1
  K  K11  1  0.51470746  0.25318061  0.41939480  1
  Bi  Bi12  1  0.05962048  0.35458177  0.05206981  1
  Bi  Bi13  1  0.44037952  0.64541823  0.55206981  1
  Bi  Bi14  1  0.55962048  0.14541823  0.94793019  1
  Bi  Bi15  1  0.94037952  0.85458177  0.44793019  1
  P  P16  1  0.50820418  0.38804709  0.65617242  1
  P  P17  1  0.03216047  0.84973914  0.59165927  1
  P  P18  1  0.96783953  0.34973914  0.90834073  1
  P  P19  1  0.00820418  0.11195291  0.34382758  1
  P  P20  1  0.46783953  0.15026086  0.09165927  1
  P  P21  1  0.49179582  0.88804709  0.84382758  1
  P  P22  1  0.99179582  0.61195291  0.15617242  1
  P  P23  1  0.53216047  0.65026086  0.40834073  1
  S  S24  1  0.25912094  0.93789473  0.54841668  1
  S  S25  1  0.73035150  0.81132181  0.80579935  1
  S  S26  1  0.24907969  0.20834355  0.31469437  1
  S  S27  1  0.74087906  0.43789473  0.95158332  1
  S  S28  1  0.96728845  0.38571757  0.16489157  1
  S  S29  1  0.56284338  0.87697447  0.41842978  1
  S  S30  1  0.52763091  0.58782280  0.32930879  1
  S  S31  1  0.51530654  0.85374459  0.92987660  1
  S  S32  1  0.24087906  0.06210527  0.04841668  1
  S  S33  1  0.23035150  0.68867819  0.19420065  1
  S  S34  1  0.77825888  0.91491393  0.55405048  1
  S  S35  1  0.74907969  0.29165645  0.68530563  1
  S  S36  1  0.06284338  0.62302553  0.58157022  1
  S  S37  1  0.97236909  0.41217720  0.82930879  1
  S  S38  1  0.48469346  0.35374459  0.57012340  1
  S  S39  1  0.03271155  0.88571757  0.33510843  1
  S  S40  1  0.98469346  0.14625541  0.42987660  1
  S  S41  1  0.93715662  0.12302553  0.91842978  1
  S  S42  1  0.22174112  0.41491393  0.94594952  1
  S  S43  1  0.46728845  0.11428243  0.83510843  1
  S  S44  1  0.43715662  0.37697447  0.08157022  1
  S  S45  1  0.25092031  0.79165645  0.81469437  1
  S  S46  1  0.02763091  0.91217720  0.67069121  1
  S  S47  1  0.72174112  0.08508607  0.05405048  1
  S  S48  1  0.26964850  0.31132181  0.69420065  1
  S  S49  1  0.75092031  0.70834355  0.18530563  1
  S  S50  1  0.76964850  0.18867819  0.30579935  1
  S  S51  1  0.53271155  0.61428243  0.66489157  1
  S  S52  1  0.27825888  0.58508607  0.44594952  1
  S  S53  1  0.01530654  0.64625541  0.07012340  1
  S  S54  1  0.47236909  0.08782280  0.17069121  1
  S  S55  1  0.75912094  0.56210527  0.45158332  1
