# generated using pymatgen
data_Rb2Ge4O9
_symmetry_space_group_name_H-M   'P 1'
_cell_length_a   12.13894330
_cell_length_b   12.13894330
_cell_length_c   9.89273423
_cell_angle_alpha   90.00000000
_cell_angle_beta   90.00000000
_cell_angle_gamma   120.00000392
_symmetry_Int_Tables_number   1
_chemical_formula_structural   Rb2Ge4O9
_chemical_formula_sum   'Rb12 Ge24 O54'
_cell_volume   1262.43411508
_cell_formula_units_Z   6
loop_
 _symmetry_equiv_pos_site_id
 _symmetry_equiv_pos_as_xyz
  1  'x, y, z'
loop_
 _atom_site_type_symbol
 _atom_site_label
 _atom_site_symmetry_multiplicity
 _atom_site_fract_x
 _atom_site_fract_y
 _atom_site_fract_z
 _atom_site_occupancy
  Rb  Rb0  1  0.99823979  0.66257338  0.56921163  1
  Rb  Rb1  1  0.66257338  0.66433359  0.43078837  1
  Rb  Rb2  1  0.33566641  0.33742662  0.93078837  1
  Rb  Rb3  1  0.00176021  0.33742662  0.43078837  1
  Rb  Rb4  1  0.33742662  0.00176021  0.06921163  1
  Rb  Rb5  1  0.99823979  0.33566641  0.06921163  1
  Rb  Rb6  1  0.66433359  0.00176021  0.56921163  1
  Rb  Rb7  1  0.66433359  0.66257338  0.06921163  1
  Rb  Rb8  1  0.66257338  0.99823979  0.93078837  1
  Rb  Rb9  1  0.00176021  0.66433359  0.93078837  1
  Rb  Rb10  1  0.33566641  0.99823979  0.43078837  1
  Rb  Rb11  1  0.33742662  0.33566641  0.56921163  1
  Ge  Ge12  1  0.00000000  0.17741027  0.75000000  1
  Ge  Ge13  1  0.33318711  0.48427068  0.22129296  1
  Ge  Ge14  1  0.84891642  0.33318711  0.77870704  1
  Ge  Ge15  1  0.33318711  0.84891642  0.72129296  1
  Ge  Ge16  1  0.51572932  0.66681289  0.72129296  1
  Ge  Ge17  1  0.15108358  0.48427068  0.72129296  1
  Ge  Ge18  1  0.17741027  0.17741027  0.25000000  1
  Ge  Ge19  1  0.15108358  0.66681289  0.22129296  1
  Ge  Ge20  1  0.66666700  0.33333300  0.02950997  1
  Ge  Ge21  1  0.66681289  0.51572932  0.77870704  1
  Ge  Ge22  1  0.48427068  0.33318711  0.27870704  1
  Ge  Ge23  1  1.00000000  0.82258973  0.25000000  1
  Ge  Ge24  1  0.33333300  0.66666700  0.97049003  1
  Ge  Ge25  1  0.82258973  1.00000000  0.25000000  1
  Ge  Ge26  1  0.48427068  0.15108358  0.77870704  1
  Ge  Ge27  1  0.66681289  0.15108358  0.27870704  1
  Ge  Ge28  1  -0.00000000  -0.00000000  0.50000000  1
  Ge  Ge29  1  0.33333300  0.66666700  0.47049003  1
  Ge  Ge30  1  0.82258973  0.82258973  0.75000000  1
  Ge  Ge31  1  0.17741027  0.00000000  0.75000000  1
  Ge  Ge32  1  -0.00000000  -0.00000000  -0.00000000  1
  Ge  Ge33  1  0.51572932  0.84891642  0.22129296  1
  Ge  Ge34  1  0.84891642  0.51572932  0.27870704  1
  Ge  Ge35  1  0.66666700  0.33333300  0.52950997  1
  O  O36  1  0.67308431  0.88205112  0.17983218  1
  O  O37  1  0.42183874  0.60894242  0.57771304  1
  O  O38  1  0.00000000  0.52959971  0.25000000  1
  O  O39  1  0.60894242  0.18710468  0.42228696  1
  O  O40  1  0.07617046  0.14791494  0.38737872  1
  O  O41  1  0.27112036  0.51833662  0.36216793  1
  O  O42  1  0.47040029  1.00000000  0.75000000  1
  O  O43  1  0.81289532  0.39105758  0.92228696  1
  O  O44  1  0.48166338  0.72887964  0.86216793  1
  O  O45  1  0.47040029  0.47040029  0.25000000  1
  O  O46  1  0.72887964  0.24721626  0.13783207  1
  O  O47  1  0.60894242  0.42183874  0.92228696  1
  O  O48  1  0.18710468  0.57816126  0.57771304  1
  O  O49  1  0.32691569  0.20896581  0.32016782  1
  O  O50  1  0.52959971  0.52959971  0.75000000  1
  O  O51  1  0.79103419  0.11794888  0.32016782  1
  O  O52  1  0.39105758  0.81289532  0.57771304  1
  O  O53  1  0.14791494  0.07617046  0.11262128  1
  O  O54  1  0.32691569  0.11794888  0.82016782  1
  O  O55  1  0.92825552  0.07617046  0.61262128  1
  O  O56  1  0.11794888  0.32691569  0.67983218  1
  O  O57  1  0.57816126  0.18710468  0.92228696  1
  O  O58  1  0.75278374  0.48166338  0.13783207  1
  O  O59  1  0.48166338  0.75278374  0.36216793  1
  O  O60  1  0.57816126  0.39105758  0.42228696  1
  O  O61  1  0.24721626  0.72887964  0.36216793  1
  O  O62  1  0.27112036  0.75278374  0.86216793  1
  O  O63  1  0.42183874  0.81289532  0.07771304  1
  O  O64  1  0.92825552  0.85208506  0.11262128  1
  O  O65  1  0.79103419  0.67308431  0.82016782  1
  O  O66  1  0.07617046  0.92825552  0.88737872  1
  O  O67  1  0.92382954  0.85208506  0.61262128  1
  O  O68  1  0.39105758  0.57816126  0.07771304  1
  O  O69  1  0.81289532  0.42183874  0.42228696  1
  O  O70  1  0.51833662  0.24721626  0.63783207  1
  O  O71  1  0.20896581  0.32691569  0.17983218  1
  O  O72  1  0.88205112  0.67308431  0.32016782  1
  O  O73  1  0.51833662  0.27112036  0.13783207  1
  O  O74  1  0.52959971  0.00000000  0.25000000  1
  O  O75  1  0.11794888  0.79103419  0.17983218  1
  O  O76  1  0.92382954  0.07174448  0.11262128  1
  O  O77  1  0.20896581  0.88205112  0.67983218  1
  O  O78  1  0.07174448  0.14791494  0.88737872  1
  O  O79  1  0.85208506  0.92825552  0.38737872  1
  O  O80  1  0.14791494  0.07174448  0.61262128  1
  O  O81  1  0.85208506  0.92382954  0.88737872  1
  O  O82  1  0.07174448  0.92382954  0.38737872  1
  O  O83  1  1.00000000  0.47040029  0.75000000  1
  O  O84  1  0.72887964  0.48166338  0.63783207  1
  O  O85  1  0.24721626  0.51833662  0.86216793  1
  O  O86  1  0.88205112  0.20896581  0.82016782  1
  O  O87  1  0.75278374  0.27112036  0.63783207  1
  O  O88  1  0.67308431  0.79103419  0.67983218  1
  O  O89  1  0.18710468  0.60894242  0.07771304  1
