# generated using pymatgen
data_KV(IO4)2
_symmetry_space_group_name_H-M   'P 1'
_cell_length_a   5.19883116
_cell_length_b   9.41370545
_cell_length_c   16.10714716
_cell_angle_alpha   70.35113276
_cell_angle_beta   90.00000000
_cell_angle_gamma   90.00000000
_symmetry_Int_Tables_number   1
_chemical_formula_structural   KV(IO4)2
_chemical_formula_sum   'K4 V4 I8 O32'
_cell_volume   742.38683297
_cell_formula_units_Z   4
loop_
 _symmetry_equiv_pos_site_id
 _symmetry_equiv_pos_as_xyz
  1  'x, y, z'
loop_
 _atom_site_type_symbol
 _atom_site_label
 _atom_site_symmetry_multiplicity
 _atom_site_fract_x
 _atom_site_fract_y
 _atom_site_fract_z
 _atom_site_occupancy
  K  K0  1  0.22233903  0.91616820  0.90728483  1
  K  K1  1  0.77766097  0.08383180  0.09271517  1
  K  K2  1  0.72233903  0.08383180  0.59271517  1
  K  K3  1  0.27766097  0.91616820  0.40728483  1
  V  V4  1  0.22007635  0.29778291  0.68658849  1
  V  V5  1  0.77992365  0.70221709  0.31341151  1
  V  V6  1  0.72007635  0.70221709  0.81341151  1
  V  V7  1  0.27992365  0.29778291  0.18658849  1
  I  I8  1  0.31808970  0.43756311  0.42864270  1
  I  I9  1  0.18191030  0.43756311  0.92864270  1
  I  I10  1  0.22340550  0.77474799  0.67823713  1
  I  I11  1  0.77659450  0.22525201  0.32176287  1
  I  I12  1  0.81808970  0.56243689  0.07135730  1
  I  I13  1  0.68191030  0.56243689  0.57135730  1
  I  I14  1  0.27659450  0.77474799  0.17823713  1
  I  I15  1  0.72340550  0.22525201  0.82176287  1
  O  O16  1  0.76530149  0.07070059  0.42221561  1
  O  O17  1  0.67784956  0.73927083  0.90514667  1
  O  O18  1  0.05013731  0.15285971  0.27469976  1
  O  O19  1  0.26530149  0.92929941  0.07778439  1
  O  O20  1  0.31394664  0.29733349  0.37461099  1
  O  O21  1  0.94041595  0.54648944  0.32096552  1
  O  O22  1  0.46365571  0.84260430  0.74088873  1
  O  O23  1  0.03634429  0.84260430  0.24088873  1
  O  O24  1  0.55822070  0.39643518  0.66337713  1
  O  O25  1  0.44041595  0.45351056  0.17903448  1
  O  O26  1  0.44177930  0.60356482  0.33662287  1
  O  O27  1  0.53634429  0.15739570  0.25911127  1
  O  O28  1  0.82215044  0.73927083  0.40514667  1
  O  O29  1  0.55958405  0.54648944  0.82096552  1
  O  O30  1  0.12516651  0.61861892  0.01655440  1
  O  O31  1  0.18605336  0.29733349  0.87461099  1
  O  O32  1  0.62516651  0.38138108  0.48344560  1
  O  O33  1  0.94177930  0.39643518  0.16337713  1
  O  O34  1  0.96365571  0.15739570  0.75911127  1
  O  O35  1  0.87483349  0.38138108  0.98344560  1
  O  O36  1  0.23469851  0.92929941  0.57778439  1
  O  O37  1  0.68605336  0.70266651  0.62538901  1
  O  O38  1  0.05822070  0.60356482  0.83662287  1
  O  O39  1  0.94986269  0.84714029  0.72530024  1
  O  O40  1  0.32215044  0.26072917  0.09485333  1
  O  O41  1  0.37483349  0.61861892  0.51655440  1
  O  O42  1  0.81394664  0.70266651  0.12538901  1
  O  O43  1  0.73469851  0.07070059  0.92221561  1
  O  O44  1  0.44986269  0.15285971  0.77469976  1
  O  O45  1  0.05958405  0.45351056  0.67903448  1
  O  O46  1  0.55013731  0.84714029  0.22530024  1
  O  O47  1  0.17784956  0.26072917  0.59485333  1
