# generated using pymatgen
data_Cs2Si2Se5
_symmetry_space_group_name_H-M   'P 1'
_cell_length_a   11.69649810
_cell_length_b   11.69649810
_cell_length_c   9.81314064
_cell_angle_alpha   80.82021074
_cell_angle_beta   80.82021074
_cell_angle_gamma   90.12533610
_symmetry_Int_Tables_number   1
_chemical_formula_structural   Cs2Si2Se5
_chemical_formula_sum   'Cs8 Si8 Se20'
_cell_volume   1307.82247106
_cell_formula_units_Z   4
loop_
 _symmetry_equiv_pos_site_id
 _symmetry_equiv_pos_as_xyz
  1  'x, y, z'
loop_
 _atom_site_type_symbol
 _atom_site_label
 _atom_site_symmetry_multiplicity
 _atom_site_fract_x
 _atom_site_fract_y
 _atom_site_fract_z
 _atom_site_occupancy
  Cs  Cs0  1  0.70867405  0.98068598  0.36675514  1
  Cs  Cs1  1  0.01931402  0.29132595  0.13324486  1
  Cs  Cs2  1  0.29132595  0.01931402  0.63324486  1
  Cs  Cs3  1  0.98068598  0.70867405  0.86675514  1
  Cs  Cs4  1  0.55173988  0.70783911  0.87344207  1
  Cs  Cs5  1  0.29216089  0.44826012  0.62655793  1
  Cs  Cs6  1  0.44826012  0.29216089  0.12655793  1
  Cs  Cs7  1  0.70783911  0.55173988  0.37344207  1
  Si  Si8  1  0.35905130  0.76861281  0.38292204  1
  Si  Si9  1  0.23138719  0.64094870  0.11707796  1
  Si  Si10  1  0.64094870  0.23138719  0.61707796  1
  Si  Si11  1  0.76861281  0.35905130  0.88292204  1
  Si  Si12  1  0.76685876  0.03656704  0.88824912  1
  Si  Si13  1  0.96343296  0.23314124  0.61175088  1
  Si  Si14  1  0.23314124  0.96343296  0.11175088  1
  Si  Si15  1  0.03656704  0.76685876  0.38824912  1
  Se  Se16  1  0.74673586  0.87077670  0.02765699  1
  Se  Se17  1  0.12922330  0.25326414  0.47234301  1
  Se  Se18  1  0.25326414  0.12922330  0.97234301  1
  Se  Se19  1  0.87077670  0.74673586  0.52765699  1
  Se  Se20  1  0.48910288  0.74767592  0.52164371  1
  Se  Se21  1  0.25232408  0.51089712  0.97835629  1
  Se  Se22  1  0.51089712  0.25232408  0.47835629  1
  Se  Se23  1  0.74767592  0.48910288  0.02164371  1
  Se  Se24  1  0.61886951  0.05265622  0.75473418  1
  Se  Se25  1  0.94734378  0.38113049  0.74526582  1
  Se  Se26  1  0.38113049  0.94734378  0.24526582  1
  Se  Se27  1  0.05265622  0.61886951  0.25473418  1
  Se  Se28  1  0.74682850  0.18141155  0.02557221  1
  Se  Se29  1  0.81858845  0.25317150  0.47442779  1
  Se  Se30  1  0.25317150  0.81858845  0.97442779  1
  Se  Se31  1  0.18141155  0.74682850  0.52557221  1
  Se  Se32  1  0.94614944  0.05385056  0.75000000  1
  Se  Se33  1  0.05385056  0.94614944  0.25000000  1
  Se  Se34  1  0.37901103  0.62098897  0.25000000  1
  Se  Se35  1  0.62098897  0.37901103  0.75000000  1
