# generated using pymatgen
data_CsAu2F7
_symmetry_space_group_name_H-M   'P 1'
_cell_length_a   7.84273578
_cell_length_b   7.84284721
_cell_length_c   7.38546231
_cell_angle_alpha   65.32492740
_cell_angle_beta   65.32272617
_cell_angle_gamma   86.67978643
_symmetry_Int_Tables_number   1
_chemical_formula_structural   CsAu2F7
_chemical_formula_sum   'Cs2 Au4 F14'
_cell_volume   371.35169810
_cell_formula_units_Z   2
loop_
 _symmetry_equiv_pos_site_id
 _symmetry_equiv_pos_as_xyz
  1  'x, y, z'
loop_
 _atom_site_type_symbol
 _atom_site_label
 _atom_site_symmetry_multiplicity
 _atom_site_fract_x
 _atom_site_fract_y
 _atom_site_fract_z
 _atom_site_occupancy
  Cs  Cs0  1  0.30615640  0.69382589  0.25001281  1
  Cs  Cs1  1  0.69385642  0.30615178  0.74999203  1
  Au  Au2  1  0.08623529  0.28828219  0.14518417  1
  Au  Au3  1  0.71170702  0.91376857  0.35481225  1
  Au  Au4  1  0.91374921  0.71170192  0.85482288  1
  Au  Au5  1  0.28830047  0.08627030  0.64516295  1
  F  F6  1  0.90639642  0.81347809  0.44963444  1
  F  F7  1  0.66305175  0.59876878  0.95377040  1
  F  F8  1  0.81343331  0.90640061  0.94959872  1
  F  F9  1  0.51400527  0.01530945  0.26391935  1
  F  F10  1  0.18650038  0.09359801  0.05037874  1
  F  F11  1  0.48598366  0.98466641  0.73608972  1
  F  F12  1  0.81646081  0.18356812  0.24995479  1
  F  F13  1  0.98469952  0.48600553  0.23607568  1
  F  F14  1  0.01534060  0.51402233  0.76390744  1
  F  F15  1  0.33695441  0.40113344  0.04629042  1
  F  F16  1  0.09359638  0.18658709  0.55039554  1
  F  F17  1  0.40124387  0.33694616  0.54623738  1
  F  F18  1  0.18351494  0.81647310  0.75000879  1
  F  F19  1  0.59881185  0.66304221  0.45375150  1
