# generated using pymatgen
data_Ba3Bi(ClO)3
_symmetry_space_group_name_H-M   'P 1'
_cell_length_a   7.09022762
_cell_length_b   12.13030304
_cell_length_c   12.30379683
_cell_angle_alpha   90.00000000
_cell_angle_beta   90.00000000
_cell_angle_gamma   90.00000000
_symmetry_Int_Tables_number   1
_chemical_formula_structural   Ba3Bi(ClO)3
_chemical_formula_sum   'Ba12 Bi4 Cl12 O12'
_cell_volume   1058.20785121
_cell_formula_units_Z   4
loop_
 _symmetry_equiv_pos_site_id
 _symmetry_equiv_pos_as_xyz
  1  'x, y, z'
loop_
 _atom_site_type_symbol
 _atom_site_label
 _atom_site_symmetry_multiplicity
 _atom_site_fract_x
 _atom_site_fract_y
 _atom_site_fract_z
 _atom_site_occupancy
  Ba  Ba0  1  0.17007953  0.06742064  0.88692786  1
  Ba  Ba1  1  0.65006601  0.25000000  0.96987430  1
  Ba  Ba2  1  0.67007953  0.06742064  0.61307214  1
  Ba  Ba3  1  0.17007953  0.43257936  0.88692786  1
  Ba  Ba4  1  0.32992047  0.93257936  0.38692786  1
  Ba  Ba5  1  0.34993399  0.75000000  0.03012570  1
  Ba  Ba6  1  0.82992047  0.56742064  0.11307214  1
  Ba  Ba7  1  0.32992047  0.56742064  0.38692786  1
  Ba  Ba8  1  0.82992047  0.93257936  0.11307214  1
  Ba  Ba9  1  0.15006601  0.25000000  0.53012570  1
  Ba  Ba10  1  0.67007953  0.43257936  0.61307214  1
  Ba  Ba11  1  0.84993399  0.75000000  0.46987430  1
  Bi  Bi12  1  0.09786576  0.25000000  0.12275152  1
  Bi  Bi13  1  0.59786576  0.25000000  0.37724848  1
  Bi  Bi14  1  0.90213424  0.75000000  0.87724848  1
  Bi  Bi15  1  0.40213424  0.75000000  0.62275152  1
  Cl  Cl16  1  0.88873032  0.00522469  0.36434672  1
  Cl  Cl17  1  0.08385892  0.75000000  0.23416340  1
  Cl  Cl18  1  0.11126968  0.50522469  0.63565328  1
  Cl  Cl19  1  0.58385892  0.75000000  0.26583660  1
  Cl  Cl20  1  0.61126968  0.99477531  0.86434672  1
  Cl  Cl21  1  0.91614108  0.25000000  0.76583660  1
  Cl  Cl22  1  0.38873032  0.00522469  0.13565328  1
  Cl  Cl23  1  0.38873032  0.49477531  0.13565328  1
  Cl  Cl24  1  0.61126968  0.50522469  0.86434672  1
  Cl  Cl25  1  0.88873032  0.49477531  0.36434672  1
  Cl  Cl26  1  0.41614108  0.25000000  0.73416340  1
  Cl  Cl27  1  0.11126968  0.99477531  0.63565328  1
  O  O28  1  0.06963277  0.87229062  0.94938414  1
  O  O29  1  0.43036723  0.37229062  0.44938414  1
  O  O30  1  0.93036723  0.12770938  0.05061586  1
  O  O31  1  0.56963277  0.62770938  0.55061586  1
  O  O32  1  0.71494725  0.75000000  0.00697119  1
  O  O33  1  0.28505275  0.25000000  0.99302881  1
  O  O34  1  0.78505275  0.25000000  0.50697119  1
  O  O35  1  0.93036723  0.37229062  0.05061586  1
  O  O36  1  0.56963277  0.87229062  0.55061586  1
  O  O37  1  0.43036723  0.12770938  0.44938414  1
  O  O38  1  0.21494725  0.75000000  0.49302881  1
  O  O39  1  0.06963277  0.62770938  0.94938414  1
