# generated using pymatgen
data_MgAl2O4
_symmetry_space_group_name_H-M   'P 1'
_cell_length_a   5.70726513
_cell_length_b   5.70726513
_cell_length_c   27.99881732
_cell_angle_alpha   90.00000000
_cell_angle_beta   90.00000000
_cell_angle_gamma   120.00000100
_symmetry_Int_Tables_number   1
_chemical_formula_structural   MgAl2O4
_chemical_formula_sum   'Mg12 Al24 O48'
_cell_volume   789.81687749
_cell_formula_units_Z   12
loop_
 _symmetry_equiv_pos_site_id
 _symmetry_equiv_pos_as_xyz
  1  'x, y, z'
loop_
 _atom_site_type_symbol
 _atom_site_label
 _atom_site_symmetry_multiplicity
 _atom_site_fract_x
 _atom_site_fract_y
 _atom_site_fract_z
 _atom_site_occupancy
  Mg  Mg0  1  0.33333300  0.66666700  0.97720318  1
  Mg  Mg1  1  0.66666700  0.33333300  0.99908732  1
  Mg  Mg2  1  0.66666700  0.33333300  0.80987974  1
  Mg  Mg3  1  0.00000000  0.00000000  0.83160370  1
  Mg  Mg4  1  0.00000000  0.00000000  0.64524083  1
  Mg  Mg5  1  0.33333300  0.66666700  0.47951667  1
  Mg  Mg6  1  0.66666700  0.33333300  0.68939428  1
  Mg  Mg7  1  0.66666700  0.33333300  0.31266995  1
  Mg  Mg8  1  0.00000000  0.00000000  0.52111494  1
  Mg  Mg9  1  0.00000000  0.00000000  0.14580256  1
  Mg  Mg10  1  0.33333300  0.66666700  0.35446012  1
  Mg  Mg11  1  0.66666700  0.33333300  0.18707934  1
  Al  Al12  1  0.82886088  0.65772276  0.91664096  1
  Al  Al13  1  0.82886088  0.17113912  0.91664096  1
  Al  Al14  1  0.16397399  0.32794697  0.74960651  1
  Al  Al15  1  0.34227724  0.17113912  0.91664096  1
  Al  Al16  1  0.16397399  0.83602601  0.74960651  1
  Al  Al17  1  0.33333300  0.66666700  0.85647556  1
  Al  Al18  1  0.33333300  0.66666700  0.66702063  1
  Al  Al19  1  0.49993752  0.99987505  0.58376362  1
  Al  Al20  1  0.67205303  0.83602601  0.74960651  1
  Al  Al21  1  0.49993752  0.50006248  0.58376362  1
  Al  Al22  1  0.66666700  0.33333300  0.50044910  1
  Al  Al23  1  0.83317015  0.66633930  0.41690481  1
  Al  Al24  1  0.00012495  0.50006248  0.58376362  1
  Al  Al25  1  0.83317015  0.16682985  0.41690481  1
  Al  Al26  1  0.66730503  0.83365251  0.25026796  1
  Al  Al27  1  0.00000000  0.00000000  0.33374198  1
  Al  Al28  1  0.16634749  0.33269497  0.25026796  1
  Al  Al29  1  0.33366070  0.16682985  0.41690481  1
  Al  Al30  1  0.16634749  0.83365251  0.25026796  1
  Al  Al31  1  0.00480666  0.50240333  0.08372738  1
  Al  Al32  1  0.33333300  0.66666700  0.16755136  1
  Al  Al33  1  0.49759667  0.99519334  0.08372738  1
  Al  Al34  1  0.49759667  0.50240333  0.08372738  1
  Al  Al35  1  0.00000000  0.00000000  0.02144553  1
  O  O36  1  0.51396106  0.48603894  0.95340512  1
  O  O37  1  0.66666700  0.33333300  0.88006246  1
  O  O38  1  0.51396106  0.02792211  0.95340512  1
  O  O39  1  0.97207789  0.48603894  0.95340512  1
  O  O40  1  0.84629610  0.15370390  0.78542326  1
  O  O41  1  0.68004871  0.84002486  0.87935549  1
  O  O42  1  0.00000000  0.00000000  0.95595629  1
  O  O43  1  0.15997514  0.31995129  0.87935549  1
  O  O44  1  0.00000000  0.00000000  0.71342873  1
  O  O45  1  0.84629610  0.69259220  0.78542326  1
  O  O46  1  0.15997514  0.84002486  0.87935549  1
  O  O47  1  0.30740780  0.15370390  0.78542326  1
  O  O48  1  0.18500867  0.81499133  0.62250097  1
  O  O49  1  0.04171729  0.52085915  0.71100547  1
  O  O50  1  0.47914085  0.95828271  0.71100547  1
  O  O51  1  0.33333300  0.66666700  0.79154186  1
  O  O52  1  0.33333300  0.66666700  0.54844537  1
  O  O53  1  0.18500867  0.37001835  0.62250097  1
  O  O54  1  0.47914085  0.52085915  0.71100547  1
  O  O55  1  0.62998165  0.81499133  0.62250097  1
  O  O56  1  0.51808367  0.48191633  0.45588322  1
  O  O57  1  0.37015016  0.18507558  0.54393861  1
  O  O58  1  0.81492442  0.62984984  0.54393861  1
  O  O59  1  0.51808367  0.03616835  0.45588322  1
  O  O60  1  0.66666700  0.33333300  0.61882720  1
  O  O61  1  0.66666700  0.33333300  0.38173121  1
  O  O62  1  0.81492442  0.18507558  0.54393861  1
  O  O63  1  0.96383165  0.48191633  0.45588322  1
  O  O64  1  0.85150033  0.14849967  0.28921433  1
  O  O65  1  0.70329345  0.85164672  0.37709432  1
  O  O66  1  0.00000000  0.00000000  0.21498310  1
  O  O67  1  0.14835328  0.29670655  0.37709432  1
  O  O68  1  0.00000000  0.00000000  0.45143659  1
  O  O69  1  0.85150033  0.70299966  0.28921433  1
  O  O70  1  0.14835328  0.85164672  0.37709432  1
  O  O71  1  0.29700034  0.14849967  0.28921433  1
  O  O72  1  0.18583735  0.81416265  0.12335210  1
  O  O73  1  0.03565673  0.51782837  0.21051517  1
  O  O74  1  0.48217163  0.96434327  0.21051517  1
  O  O75  1  0.33333300  0.66666700  0.28471772  1
  O  O76  1  0.33333300  0.66666700  0.04815149  1
  O  O77  1  0.18583735  0.37167470  0.12335210  1
  O  O78  1  0.48217163  0.51782837  0.21051517  1
  O  O79  1  0.62832530  0.81416265  0.12335210  1
  O  O80  1  0.33945789  0.16972895  0.04569586  1
  O  O81  1  0.83027105  0.66054211  0.04569586  1
  O  O82  1  0.66666700  0.33333300  0.11609668  1
  O  O83  1  0.83027105  0.16972895  0.04569586  1
