# generated using pymatgen
data_Dy3Se3N
_symmetry_space_group_name_H-M   'P 1'
_cell_length_a   3.93252876
_cell_length_b   12.51962757
_cell_length_c   13.16449305
_cell_angle_alpha   90.00000000
_cell_angle_beta   90.00000000
_cell_angle_gamma   90.00000000
_symmetry_Int_Tables_number   1
_chemical_formula_structural   Dy3Se3N
_chemical_formula_sum   'Dy12 Se12 N4'
_cell_volume   648.13795847
_cell_formula_units_Z   4
loop_
 _symmetry_equiv_pos_site_id
 _symmetry_equiv_pos_as_xyz
  1  'x, y, z'
loop_
 _atom_site_type_symbol
 _atom_site_label
 _atom_site_symmetry_multiplicity
 _atom_site_fract_x
 _atom_site_fract_y
 _atom_site_fract_z
 _atom_site_occupancy
  Dy  Dy0  1  0.75000000  0.79915371  0.85661335  1
  Dy  Dy1  1  0.75000000  0.95562216  0.14974561  1
  Dy  Dy2  1  0.75000000  0.43971905  0.86611379  1
  Dy  Dy3  1  0.75000000  0.29915371  0.64338665  1
  Dy  Dy4  1  0.75000000  0.45562216  0.35025439  1
  Dy  Dy5  1  0.25000000  0.06028095  0.36611379  1
  Dy  Dy6  1  0.25000000  0.56028095  0.13388621  1
  Dy  Dy7  1  0.25000000  0.20084629  0.14338665  1
  Dy  Dy8  1  0.25000000  0.70084629  0.35661335  1
  Dy  Dy9  1  0.25000000  0.04437784  0.85025439  1
  Dy  Dy10  1  0.25000000  0.54437784  0.64974561  1
  Dy  Dy11  1  0.75000000  0.93971905  0.63388621  1
  Se  Se12  1  0.75000000  0.40210622  0.10100016  1
  Se  Se13  1  0.25000000  0.37085579  0.50711844  1
  Se  Se14  1  0.75000000  0.12914421  0.00711844  1
  Se  Se15  1  0.25000000  0.87085579  0.99288156  1
  Se  Se16  1  0.25000000  0.27747653  0.81276222  1
  Se  Se17  1  0.75000000  0.62914421  0.49288156  1
  Se  Se18  1  0.75000000  0.90210622  0.39899984  1
  Se  Se19  1  0.25000000  0.09789378  0.60100016  1
  Se  Se20  1  0.75000000  0.72252347  0.18723778  1
  Se  Se21  1  0.75000000  0.22252347  0.31276222  1
  Se  Se22  1  0.25000000  0.59789378  0.89899984  1
  Se  Se23  1  0.25000000  0.77747653  0.68723778  1
  N  N24  1  0.75000000  0.46596088  0.70331993  1
  N  N25  1  0.75000000  0.96596088  0.79668007  1
  N  N26  1  0.25000000  0.03403912  0.20331993  1
  N  N27  1  0.25000000  0.53403912  0.29668007  1
