# generated using pymatgen
data_Rb2HfS4
_symmetry_space_group_name_H-M   'P 1'
_cell_length_a   6.72324309
_cell_length_b   9.82932311
_cell_length_c   23.92059371
_cell_angle_alpha   90.00000000
_cell_angle_beta   90.00000000
_cell_angle_gamma   90.00000000
_symmetry_Int_Tables_number   1
_chemical_formula_structural   Rb2HfS4
_chemical_formula_sum   'Rb16 Hf8 S32'
_cell_volume   1580.79072928
_cell_formula_units_Z   8
loop_
 _symmetry_equiv_pos_site_id
 _symmetry_equiv_pos_as_xyz
  1  'x, y, z'
loop_
 _atom_site_type_symbol
 _atom_site_label
 _atom_site_symmetry_multiplicity
 _atom_site_fract_x
 _atom_site_fract_y
 _atom_site_fract_z
 _atom_site_occupancy
  Rb  Rb0  1  0.30720946  0.85824169  0.46600290  1
  Rb  Rb1  1  0.54694924  0.92779221  0.30069339  1
  Rb  Rb2  1  0.04694924  0.07220779  0.19930661  1
  Rb  Rb3  1  0.80720946  0.64175831  0.46600290  1
  Rb  Rb4  1  0.04694924  0.57220779  0.30069339  1
  Rb  Rb5  1  0.19279054  0.35824169  0.53399710  1
  Rb  Rb6  1  0.45305076  0.57220779  0.80069339  1
  Rb  Rb7  1  0.30720946  0.35824169  0.03399710  1
  Rb  Rb8  1  0.95305076  0.92779221  0.80069339  1
  Rb  Rb9  1  0.19279054  0.85824169  0.96600290  1
  Rb  Rb10  1  0.69279054  0.64175831  0.96600290  1
  Rb  Rb11  1  0.45305076  0.07220779  0.69930661  1
  Rb  Rb12  1  0.80720946  0.14175831  0.03399710  1
  Rb  Rb13  1  0.54694924  0.42779221  0.19930661  1
  Rb  Rb14  1  0.95305076  0.42779221  0.69930661  1
  Rb  Rb15  1  0.69279054  0.14175831  0.53399710  1
  Hf  Hf16  1  0.03399041  0.67385487  0.13087734  1
  Hf  Hf17  1  0.53399041  0.82614513  0.13087734  1
  Hf  Hf18  1  0.46600959  0.67385487  0.63087734  1
  Hf  Hf19  1  0.46600959  0.17385487  0.86912266  1
  Hf  Hf20  1  0.53399041  0.32614513  0.36912266  1
  Hf  Hf21  1  0.96600959  0.82614513  0.63087734  1
  Hf  Hf22  1  0.96600959  0.32614513  0.86912266  1
  Hf  Hf23  1  0.03399041  0.17385487  0.36912266  1
  S  S24  1  0.05273274  0.42093519  0.15902927  1
  S  S25  1  0.44726726  0.42093519  0.65902927  1
  S  S26  1  0.94726726  0.57906481  0.84097073  1
  S  S27  1  0.87414824  0.45980674  0.08868337  1
  S  S28  1  0.76876195  0.72899934  0.20075093  1
  S  S29  1  0.12585176  0.54019326  0.91131663  1
  S  S30  1  0.65360288  0.32912953  0.93142290  1
  S  S31  1  0.55273274  0.57906481  0.34097073  1
  S  S32  1  0.12585176  0.04019326  0.58868337  1
  S  S33  1  0.65360288  0.82912953  0.56857710  1
  S  S34  1  0.34639712  0.17087047  0.43142290  1
  S  S35  1  0.23123805  0.27100066  0.79924907  1
  S  S36  1  0.05273274  0.92093519  0.34097073  1
  S  S37  1  0.15360288  0.17087047  0.93142290  1
  S  S38  1  0.37414824  0.54019326  0.41131663  1
  S  S39  1  0.26876195  0.27100066  0.29924907  1
  S  S40  1  0.73123805  0.72899934  0.70075093  1
  S  S41  1  0.62585176  0.95980674  0.91131663  1
  S  S42  1  0.87414824  0.95980674  0.41131663  1
  S  S43  1  0.23123805  0.77100066  0.70075093  1
  S  S44  1  0.76876195  0.22899934  0.29924907  1
  S  S45  1  0.62585176  0.45980674  0.58868337  1
  S  S46  1  0.73123805  0.22899934  0.79924907  1
  S  S47  1  0.94726726  0.07906481  0.65902927  1
  S  S48  1  0.84639712  0.32912953  0.43142290  1
  S  S49  1  0.55273274  0.07906481  0.15902927  1
  S  S50  1  0.15360288  0.67087047  0.56857710  1
  S  S51  1  0.84639712  0.82912953  0.06857710  1
  S  S52  1  0.34639712  0.67087047  0.06857710  1
  S  S53  1  0.44726726  0.92093519  0.84097073  1
  S  S54  1  0.26876195  0.77100066  0.20075093  1
  S  S55  1  0.37414824  0.04019326  0.08868337  1
