# generated using pymatgen
data_Ge(PbS2)2
_symmetry_space_group_name_H-M   'P 1'
_cell_length_a   9.29315529
_cell_length_b   8.04681700
_cell_length_c   10.90404737
_cell_angle_alpha   65.47093376
_cell_angle_beta   90.00000000
_cell_angle_gamma   90.00000000
_symmetry_Int_Tables_number   1
_chemical_formula_structural   Ge(PbS2)2
_chemical_formula_sum   'Ge4 Pb8 S16'
_cell_volume   741.81820103
_cell_formula_units_Z   4
loop_
 _symmetry_equiv_pos_site_id
 _symmetry_equiv_pos_as_xyz
  1  'x, y, z'
loop_
 _atom_site_type_symbol
 _atom_site_label
 _atom_site_symmetry_multiplicity
 _atom_site_fract_x
 _atom_site_fract_y
 _atom_site_fract_z
 _atom_site_occupancy
  Ge  Ge0  1  0.81011033  0.28332624  0.00595706  1
  Ge  Ge1  1  0.31011033  0.71667376  0.49404294  1
  Ge  Ge2  1  0.18988967  0.71667376  0.99404294  1
  Ge  Ge3  1  0.68988967  0.28332624  0.50595706  1
  Pb  Pb4  1  0.54929352  0.59607513  0.15127113  1
  Pb  Pb5  1  0.32740086  0.03928544  0.66083638  1
  Pb  Pb6  1  0.82740086  0.96071456  0.83916362  1
  Pb  Pb7  1  0.67259914  0.96071456  0.33916362  1
  Pb  Pb8  1  0.45070648  0.40392487  0.84872887  1
  Pb  Pb9  1  0.95070648  0.59607513  0.65127113  1
  Pb  Pb10  1  0.04929352  0.40392487  0.34872887  1
  Pb  Pb11  1  0.17259914  0.03928544  0.16083638  1
  S  S12  1  0.20379469  0.44717014  0.59755296  1
  S  S13  1  0.08910603  0.77803995  0.79633378  1
  S  S14  1  0.02190452  0.75146415  0.12737803  1
  S  S15  1  0.86400416  0.07965714  0.55715912  1
  S  S16  1  0.70379469  0.55282986  0.90244704  1
  S  S17  1  0.79620531  0.55282986  0.40244704  1
  S  S18  1  0.58910603  0.22196005  0.70366622  1
  S  S19  1  0.29620531  0.44717014  0.09755296  1
  S  S20  1  0.52190452  0.24853585  0.37262197  1
  S  S21  1  0.97809548  0.24853585  0.87262197  1
  S  S22  1  0.41089397  0.77803995  0.29633378  1
  S  S23  1  0.36400416  0.92034286  0.94284088  1
  S  S24  1  0.63599584  0.07965714  0.05715912  1
  S  S25  1  0.91089397  0.22196005  0.20366622  1
  S  S26  1  0.47809548  0.75146415  0.62737803  1
  S  S27  1  0.13599584  0.92034286  0.44284088  1
