# generated using pymatgen
data_CdI2
_symmetry_space_group_name_H-M   'P 1'
_cell_length_a   4.28451385
_cell_length_b   4.28451486
_cell_length_c   57.37095246
_cell_angle_alpha   90.00000000
_cell_angle_beta   90.00000000
_cell_angle_gamma   119.99999210
_symmetry_Int_Tables_number   1
_chemical_formula_structural   CdI2
_chemical_formula_sum   'Cd8 I16'
_cell_volume   912.06529587
_cell_formula_units_Z   8
loop_
 _symmetry_equiv_pos_site_id
 _symmetry_equiv_pos_as_xyz
  1  'x, y, z'
loop_
 _atom_site_type_symbol
 _atom_site_label
 _atom_site_symmetry_multiplicity
 _atom_site_fract_x
 _atom_site_fract_y
 _atom_site_fract_z
 _atom_site_occupancy
  Cd  Cd0  1  0.00000000  0.00000000  0.78124478  1
  Cd  Cd1  1  0.00000000  0.00000000  0.40621226  1
  Cd  Cd2  1  0.00000000  0.00000000  0.90625624  1
  Cd  Cd3  1  0.66666700  0.33333300  0.03170157  1
  Cd  Cd4  1  -0.00000000  0.00000000  0.15624428  1
  Cd  Cd5  1  -0.00000000  0.00000000  0.65624604  1
  Cd  Cd6  1  0.66666700  0.33333300  0.28080438  1
  Cd  Cd7  1  -0.00000000  0.00000000  0.53127413  1
  I  I8  1  0.33333300  0.66666700  0.81130201  1
  I  I9  1  0.33333300  0.66666700  0.56130137  1
  I  I10  1  0.66666700  0.33333300  0.12619828  1
  I  I11  1  -0.00000000  0.00000000  0.25088616  1
  I  I12  1  0.33333300  0.66666700  0.06161387  1
  I  I13  1  0.66666700  0.33333300  0.87619826  1
  I  I14  1  0.33333300  0.66666700  0.43630273  1
  I  I15  1  0.66666700  0.33333300  0.75119679  1
  I  I16  1  0.33333300  0.66666700  0.18630252  1
  I  I17  1  0.66666700  0.33333300  0.50119959  1
  I  I18  1  0.66666700  0.33333300  0.62619776  1
  I  I19  1  0.33333300  0.66666700  0.31071152  1
  I  I20  1  0.33333300  0.66666700  0.93630224  1
  I  I21  1  0.66666700  0.33333300  0.37619785  1
  I  I22  1  -0.00000000  0.00000000  0.00180048  1
  I  I23  1  0.33333300  0.66666700  0.68630189  1
