# generated using pymatgen
data_Bi(BO2)3
_symmetry_space_group_name_H-M   'P 1'
_cell_length_a   11.71465786
_cell_length_b   4.26028962
_cell_length_c   7.25831002
_cell_angle_alpha   88.91622577
_cell_angle_beta   90.00000000
_cell_angle_gamma   90.00000000
_symmetry_Int_Tables_number   1
_chemical_formula_structural   Bi(BO2)3
_chemical_formula_sum   'Bi4 B12 O24'
_cell_volume   362.18173806
_cell_formula_units_Z   4
loop_
 _symmetry_equiv_pos_site_id
 _symmetry_equiv_pos_as_xyz
  1  'x, y, z'
loop_
 _atom_site_type_symbol
 _atom_site_label
 _atom_site_symmetry_multiplicity
 _atom_site_fract_x
 _atom_site_fract_y
 _atom_site_fract_z
 _atom_site_occupancy
  Bi  Bi0  1  0.61474357  0.16479811  0.62977800  1
  Bi  Bi1  1  0.11474357  0.83520189  0.87022200  1
  Bi  Bi2  1  0.88525643  0.16479811  0.12977800  1
  Bi  Bi3  1  0.38525643  0.83520189  0.37022200  1
  B  B4  1  0.09292072  0.80207366  0.36927809  1
  B  B5  1  0.16208769  0.31997440  0.20671495  1
  B  B6  1  0.12479878  0.31074104  0.56701001  1
  B  B7  1  0.33791231  0.31997440  0.70671495  1
  B  B8  1  0.40707928  0.80207366  0.86927809  1
  B  B9  1  0.62479878  0.68925896  0.93298999  1
  B  B10  1  0.66208769  0.68002560  0.29328505  1
  B  B11  1  0.87520122  0.68925896  0.43298999  1
  B  B12  1  0.90707928  0.19792634  0.63072191  1
  B  B13  1  0.59292072  0.19792634  0.13072191  1
  B  B14  1  0.37520122  0.31074104  0.06701001  1
  B  B15  1  0.83791231  0.68002560  0.79328505  1
  O  O16  1  0.84050377  0.34213494  0.77320929  1
  O  O17  1  0.88431279  0.35488833  0.45715417  1
  O  O18  1  0.41977466  0.23180616  0.56086071  1
  O  O19  1  0.08022534  0.23180616  0.06086071  1
  O  O20  1  0.77841938  0.78804468  0.32201307  1
  O  O21  1  0.38431279  0.64511167  0.04284583  1
  O  O22  1  0.61568721  0.35488833  0.95715417  1
  O  O23  1  0.65949623  0.34213494  0.27320929  1
  O  O24  1  0.58022534  0.76819384  0.43913929  1
  O  O25  1  0.47108978  0.19289899  0.17996184  1
  O  O26  1  0.15949623  0.65786506  0.22679071  1
  O  O27  1  0.37348727  0.14950969  0.88386304  1
  O  O28  1  0.11568721  0.64511167  0.54284583  1
  O  O29  1  0.52891022  0.80710101  0.82003816  1
  O  O30  1  0.97108978  0.80710101  0.32003816  1
  O  O31  1  0.91977466  0.76819384  0.93913929  1
  O  O32  1  0.27841938  0.21195532  0.17798693  1
  O  O33  1  0.87348727  0.85049031  0.61613696  1
  O  O34  1  0.02891022  0.19289899  0.67996184  1
  O  O35  1  0.72158062  0.78804468  0.82201307  1
  O  O36  1  0.34050377  0.65786506  0.72679071  1
  O  O37  1  0.22158062  0.21195532  0.67798693  1
  O  O38  1  0.12651273  0.14950969  0.38386304  1
  O  O39  1  0.62651273  0.85049031  0.11613696  1
