# generated using pymatgen
data_La5(SiN3)3
_symmetry_space_group_name_H-M   'P 1'
_cell_length_a   7.81782652
_cell_length_b   7.81782652
_cell_length_c   16.01957896
_cell_angle_alpha   90.00000000
_cell_angle_beta   90.00000000
_cell_angle_gamma   93.92045787
_symmetry_Int_Tables_number   1
_chemical_formula_structural   La5(SiN3)3
_chemical_formula_sum   'La20 Si12 N36'
_cell_volume   976.80007654
_cell_formula_units_Z   4
loop_
 _symmetry_equiv_pos_site_id
 _symmetry_equiv_pos_as_xyz
  1  'x, y, z'
loop_
 _atom_site_type_symbol
 _atom_site_label
 _atom_site_symmetry_multiplicity
 _atom_site_fract_x
 _atom_site_fract_y
 _atom_site_fract_z
 _atom_site_occupancy
  La  La0  1  0.53332142  0.04548625  0.36947035  1
  La  La1  1  0.51829832  0.48170168  0.16219538  1
  La  La2  1  0.50322728  0.49677272  0.61363581  1
  La  La3  1  0.79328145  0.79328145  0.50000000  1
  La  La4  1  0.96667858  0.45451375  0.86947035  1
  La  La5  1  0.49677272  0.50322728  0.38636419  1
  La  La6  1  0.00322728  0.99677272  0.88636419  1
  La  La7  1  0.04548625  0.53332142  0.63052965  1
  La  La8  1  0.95451375  0.46667858  0.36947035  1
  La  La9  1  0.01829832  0.98170168  0.33780462  1
  La  La10  1  0.45451375  0.96667858  0.13052965  1
  La  La11  1  0.48170168  0.51829832  0.83780462  1
  La  La12  1  0.54548625  0.03332142  0.86947035  1
  La  La13  1  0.70671855  0.70671855  0.00000000  1
  La  La14  1  0.29328145  0.29328145  0.00000000  1
  La  La15  1  0.98170168  0.01829832  0.66219538  1
  La  La16  1  0.46667858  0.95451375  0.63052965  1
  La  La17  1  0.20671855  0.20671855  0.50000000  1
  La  La18  1  0.03332142  0.54548625  0.13052965  1
  La  La19  1  0.99677272  0.00322728  0.11363581  1
  Si  Si20  1  0.73798694  0.26201306  0.51762468  1
  Si  Si21  1  0.76201306  0.23798694  0.01762468  1
  Si  Si22  1  0.27810479  0.72189521  0.27376929  1
  Si  Si23  1  0.26201306  0.73798694  0.48237532  1
  Si  Si24  1  0.77810479  0.22189521  0.22623071  1
  Si  Si25  1  0.71471970  0.78528030  0.25000000  1
  Si  Si26  1  0.23798694  0.76201306  0.98237532  1
  Si  Si27  1  0.72189521  0.27810479  0.72623071  1
  Si  Si28  1  0.22189521  0.77810479  0.77376929  1
  Si  Si29  1  0.78528030  0.71471970  0.75000000  1
  Si  Si30  1  0.21471970  0.28528030  0.25000000  1
  Si  Si31  1  0.28528030  0.21471970  0.75000000  1
  N  N32  1  0.50540870  0.24533490  0.74243782  1
  N  N33  1  0.27012037  0.72987963  0.87572113  1
  N  N34  1  0.99459130  0.25466510  0.24243782  1
  N  N35  1  0.22987963  0.77012037  0.37572113  1
  N  N36  1  0.24533490  0.50540870  0.25756218  1
  N  N37  1  0.77012037  0.22987963  0.62427887  1
  N  N38  1  0.66282766  0.33717234  0.29449176  1
  N  N39  1  0.77393880  0.70205873  0.15469116  1
  N  N40  1  0.51573133  0.22186830  0.50033037  1
  N  N41  1  0.63639661  0.36360339  0.95561340  1
  N  N42  1  0.20205873  0.27393880  0.65469116  1
  N  N43  1  0.29794127  0.22606120  0.15469116  1
  N  N44  1  0.13639661  0.86360339  0.54438660  1
  N  N45  1  0.79794127  0.72606120  0.34530884  1
  N  N46  1  0.22606120  0.29794127  0.84530884  1
  N  N47  1  0.49459130  0.75466510  0.25756218  1
  N  N48  1  0.83717234  0.16282766  0.79449176  1
  N  N49  1  0.70205873  0.77393880  0.84530884  1
  N  N50  1  0.16282766  0.83717234  0.20550824  1
  N  N51  1  0.48426867  0.77813170  0.49966963  1
  N  N52  1  0.75466510  0.49459130  0.74243782  1
  N  N53  1  0.00540870  0.74533490  0.75756218  1
  N  N54  1  0.27393880  0.20205873  0.34530884  1
  N  N55  1  0.77813170  0.48426867  0.50033037  1
  N  N56  1  0.01573133  0.72186830  -0.00033037  1
  N  N57  1  0.74533490  0.00540870  0.24243782  1
  N  N58  1  0.72186830  0.01573133  0.00033037  1
  N  N59  1  0.25466510  0.99459130  0.75756218  1
  N  N60  1  0.27813170  0.98426867  -0.00033037  1
  N  N61  1  0.36360339  0.63639661  0.04438660  1
  N  N62  1  0.72606120  0.79794127  0.65469116  1
  N  N63  1  0.22186830  0.51573133  0.49966963  1
  N  N64  1  0.72987963  0.27012037  0.12427887  1
  N  N65  1  0.98426867  0.27813170  0.00033037  1
  N  N66  1  0.33717234  0.66282766  0.70550824  1
  N  N67  1  0.86360339  0.13639661  0.45561340  1
