# generated using pymatgen
data_KBi(PSe3)2
_symmetry_space_group_name_H-M   'P 1'
_cell_length_a   7.64654033
_cell_length_b   12.48627149
_cell_length_c   12.57941734
_cell_angle_alpha   111.03360299
_cell_angle_beta   90.00000000
_cell_angle_gamma   90.00000000
_symmetry_Int_Tables_number   1
_chemical_formula_structural   KBi(PSe3)2
_chemical_formula_sum   'K4 Bi4 P8 Se24'
_cell_volume   1121.01690560
_cell_formula_units_Z   4
loop_
 _symmetry_equiv_pos_site_id
 _symmetry_equiv_pos_as_xyz
  1  'x, y, z'
loop_
 _atom_site_type_symbol
 _atom_site_label
 _atom_site_symmetry_multiplicity
 _atom_site_fract_x
 _atom_site_fract_y
 _atom_site_fract_z
 _atom_site_occupancy
  K  K0  1  0.58728647  0.41000091  0.13492764  1
  K  K1  1  0.41271353  0.58999909  0.86507236  1
  K  K2  1  0.91271353  0.41000091  0.63492764  1
  K  K3  1  0.08728647  0.58999909  0.36507236  1
  Bi  Bi4  1  0.65044551  0.87921357  0.66735476  1
  Bi  Bi5  1  0.15044551  0.12078643  0.83264524  1
  Bi  Bi6  1  0.34955449  0.12078643  0.33264524  1
  Bi  Bi7  1  0.84955449  0.87921357  0.16735476  1
  P  P8  1  0.09461315  0.23692343  0.18272202  1
  P  P9  1  0.62418716  0.23586698  0.80170088  1
  P  P10  1  0.87581284  0.23586698  0.30170088  1
  P  P11  1  0.12418716  0.76413302  0.69829912  1
  P  P12  1  0.40538685  0.23692343  0.68272202  1
  P  P13  1  0.59461315  0.76307657  0.31727798  1
  P  P14  1  0.37581284  0.76413302  0.19829912  1
  P  P15  1  0.90538685  0.76307657  0.81727798  1
  Se  Se16  1  0.50170435  0.16613888  0.92348924  1
  Se  Se17  1  0.22936976  0.59373052  0.62181956  1
  Se  Se18  1  0.69882488  0.66432786  0.70152669  1
  Se  Se19  1  0.31282679  0.88640717  0.81036415  1
  Se  Se20  1  0.49829565  0.83386112  0.07651076  1
  Se  Se21  1  0.18717321  0.88640717  0.31036415  1
  Se  Se22  1  0.19882488  0.33567214  0.79847331  1
  Se  Se23  1  0.80117512  0.66432786  0.20152669  1
  Se  Se24  1  0.72936976  0.40626948  0.87818044  1
  Se  Se25  1  0.49922352  0.30579974  0.55852330  1
  Se  Se26  1  0.27063024  0.59373052  0.12181956  1
  Se  Se27  1  0.80916045  0.94176242  0.88679435  1
  Se  Se28  1  0.81282679  0.11359283  0.68963585  1
  Se  Se29  1  0.50077648  0.69420026  0.44147670  1
  Se  Se30  1  0.30117512  0.33567214  0.29847231  1
  Se  Se31  1  0.30916045  0.05823758  0.61320565  1
  Se  Se32  1  0.19083955  0.05823758  0.11320565  1
  Se  Se33  1  0.68717321  0.11359283  0.18963585  1
  Se  Se34  1  0.99829565  0.16613888  0.42348924  1
  Se  Se35  1  0.00170435  0.83386112  0.57651076  1
  Se  Se36  1  0.99922352  0.69420026  0.94147670  1
  Se  Se37  1  0.69083955  0.94176242  0.38679435  1
  Se  Se38  1  0.00077648  0.30579974  0.05852330  1
  Se  Se39  1  0.77063024  0.40626948  0.37818044  1
