# generated using pymatgen
data_P3IrO9
_symmetry_space_group_name_H-M   'P 1'
_cell_length_a   5.01078270
_cell_length_b   7.00840425
_cell_length_c   10.33423392
_cell_angle_alpha   98.49509700
_cell_angle_beta   92.33894962
_cell_angle_gamma   92.50273844
_symmetry_Int_Tables_number   1
_chemical_formula_structural   P3IrO9
_chemical_formula_sum   'P6 Ir2 O18'
_cell_volume   358.17888684
_cell_formula_units_Z   2
loop_
 _symmetry_equiv_pos_site_id
 _symmetry_equiv_pos_as_xyz
  1  'x, y, z'
loop_
 _atom_site_type_symbol
 _atom_site_label
 _atom_site_symmetry_multiplicity
 _atom_site_fract_x
 _atom_site_fract_y
 _atom_site_fract_z
 _atom_site_occupancy
  P  P0  1  0.49884329  0.32829743  0.63899032  1
  P  P1  1  0.50115671  0.67170257  0.36100968  1
  P  P2  1  0.47568455  0.04148854  0.81807002  1
  P  P3  1  0.52431545  0.95851146  0.18192998  1
  P  P4  1  0.23614551  0.31383547  0.22763916  1
  P  P5  1  0.76385449  0.68616453  0.77236084  1
  Ir  Ir6  1  0.00000000  0.00000000  -0.00000000  1
  Ir  Ir7  1  0.00000000  0.50000000  0.50000000  1
  O  O8  1  0.33119335  0.87975645  0.07087733  1
  O  O9  1  0.66880665  0.12024355  0.92912267  1
  O  O10  1  0.45426336  0.86894173  0.30965980  1
  O  O11  1  0.54573664  0.13105827  0.69034020  1
  O  O12  1  0.61964773  0.47902352  0.76068173  1
  O  O13  1  0.38035227  0.52097648  0.23931827  1
  O  O14  1  0.92011410  0.70401099  0.65447957  1
  O  O15  1  0.07988590  0.29598901  0.34552043  1
  O  O16  1  0.65967723  0.33534389  0.52113276  1
  O  O17  1  0.34032277  0.66465611  0.47886724  1
  O  O18  1  0.48415713  0.17916387  0.23003541  1
  O  O19  1  0.51584287  0.82083613  0.76996459  1
  O  O20  1  0.90388031  0.72533937  0.90447270  1
  O  O21  1  0.09611969  0.27466063  0.09552730  1
  O  O22  1  0.81329723  0.92823836  0.16047935  1
  O  O23  1  0.18670277  0.07176164  0.83952065  1
  O  O24  1  0.79585536  0.65278023  0.37691161  1
  O  O25  1  0.20414464  0.34721977  0.62308839  1
