# generated using pymatgen
data_La3Si2S8Cl
_symmetry_space_group_name_H-M   'P 1'
_cell_length_a   8.80395486
_cell_length_b   8.80395486
_cell_length_c   11.09031616
_cell_angle_alpha   83.87205775
_cell_angle_beta   83.87205775
_cell_angle_gamma   52.62454297
_symmetry_Int_Tables_number   1
_chemical_formula_structural   La3Si2S8Cl
_chemical_formula_sum   'La6 Si4 S16 Cl2'
_cell_volume   678.24617050
_cell_formula_units_Z   2
loop_
 _symmetry_equiv_pos_site_id
 _symmetry_equiv_pos_as_xyz
  1  'x, y, z'
loop_
 _atom_site_type_symbol
 _atom_site_label
 _atom_site_symmetry_multiplicity
 _atom_site_fract_x
 _atom_site_fract_y
 _atom_site_fract_z
 _atom_site_occupancy
  La  La0  1  0.07259273  0.31122261  0.81444781  1
  La  La1  1  0.68877739  0.92740727  0.68555219  1
  La  La2  1  0.31122261  0.07259273  0.31444781  1
  La  La3  1  0.61666633  0.38333367  0.25000000  1
  La  La4  1  0.92740727  0.68877739  0.18555219  1
  La  La5  1  0.38333367  0.61666633  0.75000000  1
  Si  Si6  1  0.37094228  0.30820130  0.03051929  1
  Si  Si7  1  0.62905772  0.69179870  0.96948071  1
  Si  Si8  1  0.69179870  0.62905772  0.46948071  1
  Si  Si9  1  0.30820130  0.37094228  0.53051929  1
  S  S10  1  0.72013988  0.41198968  0.94783884  1
  S  S11  1  0.44132792  0.26142184  0.84337211  1
  S  S12  1  0.89334653  0.40066986  0.35844213  1
  S  S13  1  0.40066986  0.89334653  0.85844213  1
  S  S14  1  0.73857816  0.55867208  0.65662789  1
  S  S15  1  0.27986012  0.58801032  0.05216116  1
  S  S16  1  0.85683774  0.70994000  0.91562528  1
  S  S17  1  0.26142184  0.44132792  0.34337211  1
  S  S18  1  0.58801032  0.27986012  0.55216116  1
  S  S19  1  0.29006000  0.14316226  0.58437472  1
  S  S20  1  0.14316226  0.29006000  0.08437472  1
  S  S21  1  0.41198968  0.72013988  0.44783884  1
  S  S22  1  0.70994000  0.85683774  0.41562528  1
  S  S23  1  0.59933014  0.10665347  0.14155787  1
  S  S24  1  0.10665347  0.59933014  0.64155787  1
  S  S25  1  0.55867208  0.73857816  0.15662789  1
  Cl  Cl26  1  0.00476715  0.99523285  0.75000000  1
  Cl  Cl27  1  0.99523285  0.00476715  0.25000000  1
