# generated using pymatgen
data_Cs2Te3As
_symmetry_space_group_name_H-M   'P 1'
_cell_length_a   9.58837828
_cell_length_b   10.95178606
_cell_length_c   11.58839620
_cell_angle_alpha   60.98583069
_cell_angle_beta   90.00000000
_cell_angle_gamma   90.00000000
_symmetry_Int_Tables_number   1
_chemical_formula_structural   Cs2Te3As
_chemical_formula_sum   'Cs8 Te12 As4'
_cell_volume   1064.17524895
_cell_formula_units_Z   4
loop_
 _symmetry_equiv_pos_site_id
 _symmetry_equiv_pos_as_xyz
  1  'x, y, z'
loop_
 _atom_site_type_symbol
 _atom_site_label
 _atom_site_symmetry_multiplicity
 _atom_site_fract_x
 _atom_site_fract_y
 _atom_site_fract_z
 _atom_site_occupancy
  Cs  Cs0  1  0.39195964  0.73346846  0.96862011  1
  Cs  Cs1  1  0.60804036  0.26653154  0.03137989  1
  Cs  Cs2  1  0.90945308  0.74454431  0.80106643  1
  Cs  Cs3  1  0.59054692  0.74454431  0.30106643  1
  Cs  Cs4  1  0.09054692  0.25545569  0.19893357  1
  Cs  Cs5  1  0.10804036  0.73346846  0.46862011  1
  Cs  Cs6  1  0.89195964  0.26653154  0.53137989  1
  Cs  Cs7  1  0.40945308  0.25545569  0.69893357  1
  Te  Te8  1  0.78170528  0.99824231  0.39257489  1
  Te  Te9  1  0.50346079  0.30653103  0.34873613  1
  Te  Te10  1  0.28170528  0.00175769  0.10742511  1
  Te  Te11  1  0.21829472  0.00175769  0.60742511  1
  Te  Te12  1  0.71829472  0.99824231  0.89257489  1
  Te  Te13  1  0.00346079  0.69346897  0.15126387  1
  Te  Te14  1  0.99653921  0.30653103  0.84873613  1
  Te  Te15  1  0.72247539  0.52808052  0.66673482  1
  Te  Te16  1  0.27752461  0.47191948  0.33326518  1
  Te  Te17  1  0.22247539  0.47191948  0.83326518  1
  Te  Te18  1  0.49653921  0.69346897  0.65126387  1
  Te  Te19  1  0.77752461  0.52808052  0.16673482  1
  As  As20  1  0.60113131  0.95481824  0.57228848  1
  As  As21  1  0.89886869  0.95481824  0.07228848  1
  As  As22  1  0.10113131  0.04518176  0.92771152  1
  As  As23  1  0.39886869  0.04518176  0.42771152  1
