# generated using pymatgen
data_La(IO3)3
_symmetry_space_group_name_H-M   'P 1'
_cell_length_a   7.17075665
_cell_length_b   7.17075665
_cell_length_c   27.81820602
_cell_angle_alpha   79.83160093
_cell_angle_beta   79.83160093
_cell_angle_gamma   59.23035096
_symmetry_Int_Tables_number   1
_chemical_formula_structural   La(IO3)3
_chemical_formula_sum   'La6 I18 O54'
_cell_volume   1203.44031953
_cell_formula_units_Z   6
loop_
 _symmetry_equiv_pos_site_id
 _symmetry_equiv_pos_as_xyz
  1  'x, y, z'
loop_
 _atom_site_type_symbol
 _atom_site_label
 _atom_site_symmetry_multiplicity
 _atom_site_fract_x
 _atom_site_fract_y
 _atom_site_fract_z
 _atom_site_occupancy
  La  La0  1  0.38084059  0.15904464  0.40543769  1
  La  La1  1  0.19550866  0.94879976  0.12802014  1
  La  La2  1  0.94879976  0.19550866  0.62802014  1
  La  La3  1  0.78435207  0.86385749  0.26479962  1
  La  La4  1  0.15904464  0.38084059  0.90543769  1
  La  La5  1  0.86385749  0.78435207  0.76479962  1
  I  I6  1  0.85380900  0.63844256  0.15056330  1
  I  I7  1  0.63844256  0.85380900  0.65056330  1
  I  I8  1  0.17579393  0.45908079  0.52274496  1
  I  I9  1  0.41562804  0.47956459  0.28882548  1
  I  I10  1  0.47956459  0.41562804  0.78882548  1
  I  I11  1  0.90280804  0.01469510  0.87944464  1
  I  I12  1  0.53789198  0.76416842  0.52713948  1
  I  I13  1  0.28117850  0.56218901  0.64961029  1
  I  I14  1  0.55294464  0.72519670  0.87844265  1
  I  I15  1  0.89955145  0.09669700  0.50006290  1
  I  I16  1  0.14107954  0.15241954  0.74302841  1
  I  I17  1  0.56218901  0.28117850  0.14961029  1
  I  I18  1  0.01469510  0.90280804  0.37944464  1
  I  I19  1  0.45908079  0.17579393  0.02274496  1
  I  I20  1  0.09669700  0.89955145  0.00006290  1
  I  I21  1  0.15241954  0.14107954  0.24302841  1
  I  I22  1  0.76416842  0.53789198  0.02713948  1
  I  I23  1  0.72519670  0.55294464  0.37844265  1
  O  O24  1  0.22949815  0.22021888  0.06902818  1
  O  O25  1  0.21793133  0.23270361  0.67962317  1
  O  O26  1  0.58066063  0.23873715  0.21574642  1
  O  O27  1  0.77058240  0.15679564  0.39882671  1
  O  O28  1  0.58653125  0.80174585  0.46005739  1
  O  O29  1  0.88658631  0.85983896  0.16597906  1
  O  O30  1  0.19439394  0.51114081  0.81082221  1
  O  O31  1  0.04797347  0.83893944  0.47274566  1
  O  O32  1  0.76092659  0.50694906  0.31478511  1
  O  O33  1  0.56069433  0.34580481  0.64657197  1
  O  O34  1  0.98881908  0.96651668  0.31351224  1
  O  O35  1  0.33975960  0.54716905  0.35258134  1
  O  O36  1  0.31783914  0.54751871  0.55198481  1
  O  O37  1  0.74591692  0.48041631  0.53890745  1
  O  O38  1  0.91690836  0.41497182  0.75856282  1
  O  O39  1  0.38768110  0.33497840  0.47290483  1
  O  O40  1  0.32215782  0.79988091  0.63082988  1
  O  O41  1  0.11204705  0.16810936  0.47936485  1
  O  O42  1  0.05769434  0.98469276  0.21976585  1
  O  O43  1  0.15679564  0.77058240  0.89882671  1
  O  O44  1  0.00327763  0.43590689  0.39020145  1
  O  O45  1  0.83023562  0.68563886  0.86125990  1
  O  O46  1  0.51114081  0.19439394  0.31082221  1
  O  O47  1  0.41497182  0.91690836  0.25856282  1
  O  O48  1  0.81579863  0.57657128  0.63674034  1
  O  O49  1  0.00724952  0.95757063  0.06313483  1
  O  O50  1  0.55340304  0.80931406  0.71477255  1
  O  O51  1  0.16810936  0.11204705  0.97936485  1
  O  O52  1  0.22021888  0.22949815  0.56902818  1
  O  O53  1  0.34580481  0.56069433  0.14657197  1
  O  O54  1  0.15487676  0.54189522  0.27272930  1
  O  O55  1  0.50694906  0.76092659  0.81478511  1
  O  O56  1  0.23873715  0.58066063  0.71574642  1
  O  O57  1  0.22609810  0.96914755  0.37836300  1
  O  O58  1  0.80931406  0.55340304  0.21477255  1
  O  O59  1  0.48041631  0.74591692  0.03890745  1
  O  O60  1  0.33497840  0.38768110  0.97290483  1
  O  O61  1  0.88444771  0.68213548  0.04399214  1
  O  O62  1  0.96914755  0.22609810  0.87836300  1
  O  O63  1  0.98469276  0.05769434  0.71976585  1
  O  O64  1  0.95757063  0.00724952  0.56313483  1
  O  O65  1  0.79988091  0.32215782  0.13082988  1
  O  O66  1  0.23270361  0.21793133  0.17962317  1
  O  O67  1  0.43590689  0.00327763  0.89020145  1
  O  O68  1  0.83893944  0.04797347  0.97274566  1
  O  O69  1  0.54716905  0.33975960  0.85258134  1
  O  O70  1  0.96651668  0.98881908  0.81351224  1
  O  O71  1  0.68563886  0.83023562  0.36125990  1
  O  O72  1  0.85983896  0.88658631  0.66597906  1
  O  O73  1  0.80174585  0.58653125  0.96005739  1
  O  O74  1  0.54189522  0.15487676  0.77272930  1
  O  O75  1  0.68213548  0.88444771  0.54399214  1
  O  O76  1  0.54751871  0.31783914  0.05198481  1
  O  O77  1  0.57657128  0.81579863  0.13674034  1
