# generated using pymatgen
data_AlHg2SbCl4
_symmetry_space_group_name_H-M   'P 1'
_cell_length_a   8.90592676
_cell_length_b   12.12530148
_cell_length_c   17.82432966
_cell_angle_alpha   90.00000000
_cell_angle_beta   90.00000000
_cell_angle_gamma   90.00000000
_symmetry_Int_Tables_number   1
_chemical_formula_structural   AlHg2SbCl4
_chemical_formula_sum   'Al8 Hg16 Sb8 Cl32'
_cell_volume   1924.79672338
_cell_formula_units_Z   8
loop_
 _symmetry_equiv_pos_site_id
 _symmetry_equiv_pos_as_xyz
  1  'x, y, z'
loop_
 _atom_site_type_symbol
 _atom_site_label
 _atom_site_symmetry_multiplicity
 _atom_site_fract_x
 _atom_site_fract_y
 _atom_site_fract_z
 _atom_site_occupancy
  Al  Al0  1  0.41589342  0.10757191  0.62522087  1
  Al  Al1  1  0.08410658  0.39242809  0.12522087  1
  Al  Al2  1  0.58410658  0.10757191  0.12522087  1
  Al  Al3  1  0.08410658  0.60757191  0.37477913  1
  Al  Al4  1  0.91589342  0.39242809  0.62522087  1
  Al  Al5  1  0.58410658  0.89242809  0.37477913  1
  Al  Al6  1  0.41589342  0.89242809  0.87477913  1
  Al  Al7  1  0.91589342  0.60757191  0.87477913  1
  Hg  Hg8  1  0.95945236  -0.00000000  0.75000000  1
  Hg  Hg9  1  0.54054764  0.50000000  0.25000000  1
  Hg  Hg10  1  0.67512784  0.76504249  0.62366975  1
  Hg  Hg11  1  0.04054764  -0.00000000  0.25000000  1
  Hg  Hg12  1  0.32487216  0.23495751  0.37633025  1
  Hg  Hg13  1  0.32487216  0.76504249  0.12366975  1
  Hg  Hg14  1  0.17512784  0.73495751  0.62366975  1
  Hg  Hg15  1  0.67512784  0.23495751  0.87633025  1
  Hg  Hg16  1  -0.00000000  -0.00000000  0.00000000  1
  Hg  Hg17  1  0.45945236  0.50000000  0.75000000  1
  Hg  Hg18  1  0.82487216  0.73495751  0.12366975  1
  Hg  Hg19  1  0.17512784  0.26504249  0.87633025  1
  Hg  Hg20  1  0.50000000  0.50000000  0.00000000  1
  Hg  Hg21  1  0.82487216  0.26504249  0.37633025  1
  Hg  Hg22  1  -0.00000000  -0.00000000  0.50000000  1
  Hg  Hg23  1  0.50000000  0.50000000  0.50000000  1
  Sb  Sb24  1  0.56068555  0.62366363  0.12410408  1
  Sb  Sb25  1  0.56068555  0.37633637  0.37589592  1
  Sb  Sb26  1  0.93931445  0.12366363  0.87589592  1
  Sb  Sb27  1  0.93931445  0.87633637  0.62410408  1
  Sb  Sb28  1  0.06068555  0.12366363  0.37589592  1
  Sb  Sb29  1  0.43931445  0.37633637  0.87589592  1
  Sb  Sb30  1  0.43931445  0.62366363  0.62410408  1
  Sb  Sb31  1  0.06068555  0.87633637  0.12410408  1
  Cl  Cl32  1  0.36254287  0.92071950  0.33509769  1
  Cl  Cl33  1  0.15848691  0.46420165  0.43594013  1
  Cl  Cl34  1  0.76525115  0.35863840  0.71654095  1
  Cl  Cl35  1  0.65848691  0.96420165  0.06405987  1
  Cl  Cl36  1  0.34151309  0.03579835  0.93594013  1
  Cl  Cl37  1  0.65848691  0.03579835  0.43594013  1
  Cl  Cl38  1  0.84151309  0.46420165  0.93594013  1
  Cl  Cl39  1  0.23474885  0.35863840  0.21654095  1
  Cl  Cl40  1  0.76525115  0.64136160  0.78345905  1
  Cl  Cl41  1  0.90956907  0.25167319  0.55198597  1
  Cl  Cl42  1  0.23474885  0.64136160  0.28345905  1
  Cl  Cl43  1  0.59043093  0.75167319  0.44801403  1
  Cl  Cl44  1  0.90956907  0.74832681  0.94801403  1
  Cl  Cl45  1  0.86254287  0.42071950  0.16490231  1
  Cl  Cl46  1  0.36254287  0.07928050  0.16490231  1
  Cl  Cl47  1  0.40956907  0.24832681  0.55198597  1
  Cl  Cl48  1  0.09043093  0.25167319  0.05198597  1
  Cl  Cl49  1  0.15848691  0.53579835  0.06405987  1
  Cl  Cl50  1  0.73474885  0.14136160  0.21654095  1
  Cl  Cl51  1  0.13745713  0.42071950  0.66490231  1
  Cl  Cl52  1  0.09043093  0.74832681  0.44801403  1
  Cl  Cl53  1  0.59043093  0.24832681  0.05198597  1
  Cl  Cl54  1  0.86254287  0.57928050  0.33509769  1
  Cl  Cl55  1  0.34151309  0.96420165  0.56405987  1
  Cl  Cl56  1  0.63745713  0.92071950  0.83509769  1
  Cl  Cl57  1  0.26525115  0.85863840  0.78345905  1
  Cl  Cl58  1  0.26525115  0.14136160  0.71654095  1
  Cl  Cl59  1  0.84151309  0.53579835  0.56405987  1
  Cl  Cl60  1  0.73474885  0.85863840  0.28345905  1
  Cl  Cl61  1  0.40956907  0.75167319  0.94801403  1
  Cl  Cl62  1  0.13745713  0.57928050  0.83509769  1
  Cl  Cl63  1  0.63745713  0.07928050  0.66490231  1
