# generated using pymatgen
data_Gd3Sb5O12
_symmetry_space_group_name_H-M   'P 1'
_cell_length_a   9.40501668
_cell_length_b   9.40501559
_cell_length_c   9.40501563
_cell_angle_alpha   109.47103960
_cell_angle_beta   109.47111414
_cell_angle_gamma   109.47114950
_symmetry_Int_Tables_number   1
_chemical_formula_structural   Gd3Sb5O12
_chemical_formula_sum   'Gd6 Sb10 O24'
_cell_volume   640.41079375
_cell_formula_units_Z   2
loop_
 _symmetry_equiv_pos_site_id
 _symmetry_equiv_pos_as_xyz
  1  'x, y, z'
loop_
 _atom_site_type_symbol
 _atom_site_label
 _atom_site_symmetry_multiplicity
 _atom_site_fract_x
 _atom_site_fract_y
 _atom_site_fract_z
 _atom_site_occupancy
  Gd  Gd0  1  0.24999820  0.49999702  0.74999756  1
  Gd  Gd1  1  0.49999802  0.74999802  0.24999729  1
  Gd  Gd2  1  0.49999685  0.24999853  0.74999667  1
  Gd  Gd3  1  0.74999683  0.24999657  0.49999794  1
  Gd  Gd4  1  0.24999815  0.74999714  0.49999717  1
  Gd  Gd5  1  0.74999717  0.49999798  0.24999799  1
  Sb  Sb6  1  0.71994481  0.71994492  0.00000062  1
  Sb  Sb7  1  0.28005666  0.28005612  0.00000268  1
  Sb  Sb8  1  0.71994198  -0.00000132  0.71994432  1
  Sb  Sb9  1  0.28005491  -0.00000020  0.28005541  1
  Sb  Sb10  1  -0.00000146  0.28005684  0.28005608  1
  Sb  Sb11  1  -0.00000073  0.71994209  0.71994352  1
  Sb  Sb12  1  -0.00000092  -0.00000033  0.48734128  1
  Sb  Sb13  1  0.48733919  -0.00000021  0.99999864  1
  Sb  Sb14  1  -0.00000114  0.48733872  -0.00000136  1
  Sb  Sb15  1  0.51266512  0.51266426  0.51266418  1
  O  O16  1  0.29381570  -0.00000047  0.49305013  1
  O  O17  1  0.19923648  0.70618444  0.70618445  1
  O  O18  1  -0.00000059  0.49305133  0.29381587  1
  O  O19  1  0.50695154  0.50695162  0.80076527  1
  O  O20  1  0.49305007  0.29381498  -0.00000068  1
  O  O21  1  0.70618499  0.19923583  0.70618576  1
  O  O22  1  0.50695041  0.80076440  0.50694961  1
  O  O23  1  0.29381538  0.49304998  0.00000013  1
  O  O24  1  0.80076487  0.50694935  0.50694997  1
  O  O25  1  -0.00000079  0.29381579  0.49305033  1
  O  O26  1  0.70618510  0.70618511  0.19923591  1
  O  O27  1  0.49304972  -0.00000034  0.29381508  1
  O  O28  1  0.80169900  0.00000314  0.52506338  1
  O  O29  1  0.72336244  0.19830321  0.19830107  1
  O  O30  1  0.00000302  0.52506160  0.80169893  1
  O  O31  1  0.47493973  0.47493909  0.27663655  1
  O  O32  1  0.52506333  0.80169964  0.00000312  1
  O  O33  1  0.19830263  0.72336254  0.19830214  1
  O  O34  1  0.47493943  0.27663688  0.47493957  1
  O  O35  1  0.80169845  0.52506173  0.00000090  1
  O  O36  1  0.27663759  0.47493993  0.47493964  1
  O  O37  1  0.00000221  0.80169906  0.52506306  1
  O  O38  1  0.19830324  0.19830308  0.72336359  1
  O  O39  1  0.52506243  0.00000190  0.80169819  1
