# generated using pymatgen
data_C
_symmetry_space_group_name_H-M   'P 1'
_cell_length_a   10.43793622
_cell_length_b   10.43793650
_cell_length_c   10.43793682
_cell_angle_alpha   13.82008373
_cell_angle_beta   13.82007681
_cell_angle_gamma   13.82007834
_symmetry_Int_Tables_number   1
_chemical_formula_structural   C
_chemical_formula_sum   C10
_cell_volume   56.46924150
_cell_formula_units_Z   10
loop_
 _symmetry_equiv_pos_site_id
 _symmetry_equiv_pos_as_xyz
  1  'x, y, z'
loop_
 _atom_site_type_symbol
 _atom_site_label
 _atom_site_symmetry_multiplicity
 _atom_site_fract_x
 _atom_site_fract_y
 _atom_site_fract_z
 _atom_site_occupancy
  C  C0  1  0.57467686  0.57467686  0.57467686  1
  C  C1  1  0.84163261  0.84163261  0.84163261  1
  C  C2  1  0.10869455  0.10869455  0.10869455  1
  C  C3  1  0.02481500  0.02481500  0.02481500  1
  C  C4  1  0.89130545  0.89130545  0.89130545  1
  C  C5  1  0.97518500  0.97518500  0.97518500  1
  C  C6  1  0.42532314  0.42532314  0.42532314  1
  C  C7  1  0.37485836  0.37485836  0.37485836  1
  C  C8  1  0.15836739  0.15836739  0.15836739  1
  C  C9  1  0.62514164  0.62514164  0.62514164  1
