# generated using pymatgen
data_K6NaAu2IO8
_symmetry_space_group_name_H-M   'P 1'
_cell_length_a   9.76852139
_cell_length_b   7.05014735
_cell_length_c   11.95392736
_cell_angle_alpha   57.19191319
_cell_angle_beta   90.00000000
_cell_angle_gamma   90.00000000
_symmetry_Int_Tables_number   1
_chemical_formula_structural   K6NaAu2IO8
_chemical_formula_sum   'K12 Na2 Au4 I2 O16'
_cell_volume   691.94290424
_cell_formula_units_Z   2
loop_
 _symmetry_equiv_pos_site_id
 _symmetry_equiv_pos_as_xyz
  1  'x, y, z'
loop_
 _atom_site_type_symbol
 _atom_site_label
 _atom_site_symmetry_multiplicity
 _atom_site_fract_x
 _atom_site_fract_y
 _atom_site_fract_z
 _atom_site_occupancy
  K  K0  1  0.66301249  0.98938089  0.41090837  1
  K  K1  1  0.35583436  0.00000000  0.25000000  1
  K  K2  1  0.81917894  0.46989821  0.41209710  1
  K  K3  1  0.15630337  0.50000000  0.25000000  1
  K  K4  1  0.33698751  0.98938089  0.91090837  1
  K  K5  1  0.84369663  0.50000000  0.75000000  1
  K  K6  1  0.18082106  0.46989821  0.91209710  1
  K  K7  1  0.66301249  0.01061911  0.08909163  1
  K  K8  1  0.64416564  0.00000000  0.75000000  1
  K  K9  1  0.33698751  0.01061911  0.58909163  1
  K  K10  1  0.18082106  0.53010179  0.58790290  1
  K  K11  1  0.81917894  0.53010179  0.08790290  1
  Na  Na12  1  0.50623983  0.50000000  0.75000000  1
  Na  Na13  1  0.49376017  0.50000000  0.25000000  1
  Au  Au14  1  0.04577043  0.00000000  0.75000000  1
  Au  Au15  1  0.95422957  0.00000000  0.25000000  1
  Au  Au16  1  -0.00000000  0.00000000  0.50000000  1
  Au  Au17  1  -0.00000000  0.00000000  -0.00000000  1
  I  I18  1  0.50000000  0.50000000  0.50000000  1
  I  I19  1  0.50000000  0.50000000  -0.00000000  1
  O  O20  1  0.57178939  0.73712427  0.01398651  1
  O  O21  1  0.05618585  0.78301255  0.68951061  1
  O  O22  1  0.94381415  0.21698745  0.31048939  1
  O  O23  1  0.41928132  0.71072127  0.83381864  1
  O  O24  1  0.66095311  0.49721152  0.59141992  1
  O  O25  1  0.33904689  0.50278848  0.40858008  1
  O  O26  1  0.42821061  0.73712427  0.51398651  1
  O  O27  1  0.58071868  0.71072127  0.33381864  1
  O  O28  1  0.57178939  0.26287573  0.48601349  1
  O  O29  1  0.58071868  0.28927873  0.16618136  1
  O  O30  1  0.05618585  0.21698745  0.81048939  1
  O  O31  1  0.94381415  0.78301255  0.18951061  1
  O  O32  1  0.41928132  0.28927873  0.66618136  1
  O  O33  1  0.33904689  0.49721152  0.09141992  1
  O  O34  1  0.66095311  0.50278848  0.90858008  1
  O  O35  1  0.42821061  0.26287573  0.98601349  1
