# generated using pymatgen
data_NaSmSe2O7
_symmetry_space_group_name_H-M   'P 1'
_cell_length_a   6.91836787
_cell_length_b   8.25051766
_cell_length_c   10.60305083
_cell_angle_alpha   88.84208222
_cell_angle_beta   90.00000000
_cell_angle_gamma   90.00000000
_symmetry_Int_Tables_number   1
_chemical_formula_structural   NaSmSe2O7
_chemical_formula_sum   'Na4 Sm4 Se8 O28'
_cell_volume   605.09978497
_cell_formula_units_Z   4
loop_
 _symmetry_equiv_pos_site_id
 _symmetry_equiv_pos_as_xyz
  1  'x, y, z'
loop_
 _atom_site_type_symbol
 _atom_site_label
 _atom_site_symmetry_multiplicity
 _atom_site_fract_x
 _atom_site_fract_y
 _atom_site_fract_z
 _atom_site_occupancy
  Na  Na0  1  0.37276827  0.81141258  0.93557110  1
  Na  Na1  1  0.87276827  0.68858742  0.06442890  1
  Na  Na2  1  0.62723173  0.18858742  0.06442890  1
  Na  Na3  1  0.12723173  0.31141258  0.93557110  1
  Sm  Sm4  1  0.84860264  0.19450789  0.58370841  1
  Sm  Sm5  1  0.34860264  0.30549211  0.41629159  1
  Sm  Sm6  1  0.15139736  0.80549211  0.41629159  1
  Sm  Sm7  1  0.65139736  0.69450789  0.58370841  1
  Se  Se8  1  0.32758067  0.05516038  0.67339626  1
  Se  Se9  1  0.17241933  0.55516038  0.67339626  1
  Se  Se10  1  0.67241933  0.94483962  0.32660374  1
  Se  Se11  1  0.14307205  0.04317286  0.15920592  1
  Se  Se12  1  0.82758067  0.44483962  0.32660374  1
  Se  Se13  1  0.35692795  0.54317286  0.15920592  1
  Se  Se14  1  0.64307205  0.45682714  0.84079408  1
  Se  Se15  1  0.85692795  0.95682714  0.84079408  1
  O  O16  1  0.22339352  0.07866018  0.30488296  1
  O  O17  1  0.84176048  0.93494416  0.44755324  1
  O  O18  1  0.88219375  0.64239245  0.33967870  1
  O  O19  1  0.72339352  0.42133982  0.69511704  1
  O  O20  1  0.00307829  0.33934590  0.40832359  1
  O  O21  1  0.56376008  0.64456060  0.81307713  1
  O  O22  1  0.47165873  0.33041059  0.88365516  1
  O  O23  1  0.49692171  0.83934590  0.40832359  1
  O  O24  1  0.43623992  0.35543940  0.18692287  1
  O  O25  1  0.61780625  0.14239245  0.33967870  1
  O  O26  1  0.15823952  0.06505584  0.55244676  1
  O  O27  1  0.27660648  0.57866018  0.30488296  1
  O  O28  1  0.93623992  0.14456060  0.81307713  1
  O  O29  1  0.31770916  0.04806802  0.05458212  1
  O  O30  1  0.11780625  0.35760755  0.66032130  1
  O  O31  1  0.38219375  0.85760755  0.66032130  1
  O  O32  1  0.02834127  0.83041059  0.88365516  1
  O  O33  1  0.50307829  0.16065410  0.59167641  1
  O  O34  1  0.65823952  0.43494416  0.44755324  1
  O  O35  1  0.06376008  0.85543940  0.18692287  1
  O  O36  1  0.34176048  0.56505584  0.55244676  1
  O  O37  1  0.81770916  0.45193198  0.94541788  1
  O  O38  1  0.97165873  0.16958941  0.11634484  1
  O  O39  1  0.18229084  0.54806802  0.05458212  1
  O  O40  1  0.52834127  0.66958941  0.11634484  1
  O  O41  1  0.99692171  0.66065410  0.59167641  1
  O  O42  1  0.77660648  0.92133982  0.69511704  1
  O  O43  1  0.68229084  0.95193198  0.94541788  1
