# generated using pymatgen
data_Cs2GeO3
_symmetry_space_group_name_H-M   'P 1'
_cell_length_a   14.15380315
_cell_length_b   6.99133676
_cell_length_c   17.50292038
_cell_angle_alpha   72.03423133
_cell_angle_beta   90.00000000
_cell_angle_gamma   90.00000000
_symmetry_Int_Tables_number   1
_chemical_formula_structural   Cs2GeO3
_chemical_formula_sum   'Cs24 Ge12 O36'
_cell_volume   1647.53419204
_cell_formula_units_Z   12
loop_
 _symmetry_equiv_pos_site_id
 _symmetry_equiv_pos_as_xyz
  1  'x, y, z'
loop_
 _atom_site_type_symbol
 _atom_site_label
 _atom_site_symmetry_multiplicity
 _atom_site_fract_x
 _atom_site_fract_y
 _atom_site_fract_z
 _atom_site_occupancy
  Cs  Cs0  1  0.08761313  0.72245972  0.53019271  1
  Cs  Cs1  1  0.49043522  0.65477829  0.28061462  1
  Cs  Cs2  1  0.69538213  0.12268082  0.19489274  1
  Cs  Cs3  1  0.88089872  0.88288826  0.36319570  1
  Cs  Cs4  1  0.00956478  0.65477829  0.78061462  1
  Cs  Cs5  1  0.61910128  0.88288826  0.86319570  1
  Cs  Cs6  1  0.50956478  0.34522171  0.71938538  1
  Cs  Cs7  1  0.38089872  0.11711174  0.13680430  1
  Cs  Cs8  1  0.30461787  0.87731918  0.80510726  1
  Cs  Cs9  1  0.11910128  0.11711174  0.63680430  1
  Cs  Cs10  1  0.58761313  0.27754028  0.96980729  1
  Cs  Cs11  1  0.61193865  0.00108684  0.41535859  1
  Cs  Cs12  1  0.41238687  0.72245972  0.03019271  1
  Cs  Cs13  1  0.34733399  0.55742813  0.49226189  1
  Cs  Cs14  1  0.65266601  0.44257187  0.50773811  1
  Cs  Cs15  1  0.11193865  0.99891316  0.08464141  1
  Cs  Cs16  1  0.19538213  0.87731918  0.30510726  1
  Cs  Cs17  1  0.88806135  0.00108684  0.91535859  1
  Cs  Cs18  1  0.80461787  0.12268082  0.69489274  1
  Cs  Cs19  1  0.91238687  0.27754028  0.46980729  1
  Cs  Cs20  1  0.84733399  0.44257187  0.00773811  1
  Cs  Cs21  1  0.38806135  0.99891316  0.58464141  1
  Cs  Cs22  1  0.15266601  0.55742813  0.99226189  1
  Cs  Cs23  1  0.99043522  0.34522171  0.21938538  1
  Ge  Ge24  1  0.75360674  0.54117207  0.78242425  1
  Ge  Ge25  1  0.65320350  0.72812929  0.10246644  1
  Ge  Ge26  1  0.34679650  0.27187071  0.89753356  1
  Ge  Ge27  1  0.84679650  0.72812929  0.60246644  1
  Ge  Ge28  1  0.15320350  0.27187071  0.39753356  1
  Ge  Ge29  1  0.87403880  0.83374298  0.13374490  1
  Ge  Ge30  1  0.37403880  0.16625702  0.36625510  1
  Ge  Ge31  1  0.25360674  0.45882793  0.71757575  1
  Ge  Ge32  1  0.12596120  0.16625702  0.86625510  1
  Ge  Ge33  1  0.24639326  0.45882793  0.21757575  1
  Ge  Ge34  1  0.62596120  0.83374298  0.63374490  1
  Ge  Ge35  1  0.74639326  0.54117207  0.28242425  1
  O  O36  1  0.55018001  0.72001463  0.58303072  1
  O  O37  1  0.86335760  0.60012770  0.53332512  1
  O  O38  1  0.77313474  0.29301626  0.33396686  1
  O  O39  1  0.94981999  0.72001463  0.08303072  1
  O  O40  1  0.56473600  0.89346066  0.11012827  1
  O  O41  1  0.67116533  0.53954452  0.19895727  1
  O  O42  1  0.40776602  0.93607355  0.35740669  1
  O  O43  1  0.85307911  0.66674105  0.23448006  1
  O  O44  1  0.64692089  0.66674105  0.73448006  1
  O  O45  1  0.63664240  0.60012770  0.03332512  1
  O  O46  1  0.14692089  0.33325895  0.76551994  1
  O  O47  1  0.06473600  0.10653934  0.38987173  1
  O  O48  1  0.09223398  0.93607355  0.85740669  1
  O  O49  1  0.36335760  0.39987230  0.96667488  1
  O  O50  1  0.93526400  0.89346066  0.61012827  1
  O  O51  1  0.23870165  0.12490843  0.91880571  1
  O  O52  1  0.19702673  0.31029176  0.16470020  1
  O  O53  1  0.13664240  0.39987230  0.46667488  1
  O  O54  1  0.59223398  0.06392645  0.64259331  1
  O  O55  1  0.22686526  0.70698374  0.66603314  1
  O  O56  1  0.35307911  0.33325895  0.26551994  1
  O  O57  1  0.27313474  0.70698374  0.16603314  1
  O  O58  1  0.69702673  0.68970824  0.33529980  1
  O  O59  1  0.72686526  0.29301626  0.83396686  1
  O  O60  1  0.30297327  0.31029176  0.66470020  1
  O  O61  1  0.90776602  0.06392645  0.14259331  1
  O  O62  1  0.73870165  0.87509157  0.58119429  1
  O  O63  1  0.44981999  0.27998537  0.41696928  1
  O  O64  1  0.80297327  0.68970824  0.83529980  1
  O  O65  1  0.26129835  0.12490843  0.41880571  1
  O  O66  1  0.43526400  0.10653934  0.88987173  1
  O  O67  1  0.76129835  0.87509157  0.08119429  1
  O  O68  1  0.17116533  0.46045548  0.30104273  1
  O  O69  1  0.32883467  0.46045548  0.80104273  1
  O  O70  1  0.05018001  0.27998537  0.91696928  1
  O  O71  1  0.82883467  0.53954452  0.69895727  1
