# generated using pymatgen
data_Co6Te3(ClO6)2
_symmetry_space_group_name_H-M   'P 1'
_cell_length_a   8.37184300
_cell_length_b   8.37206593
_cell_length_c   18.48406782
_cell_angle_alpha   90.00000000
_cell_angle_beta   90.00000000
_cell_angle_gamma   89.99997529
_symmetry_Int_Tables_number   1
_chemical_formula_structural   Co6Te3(ClO6)2
_chemical_formula_sum   'Co24 Te12 Cl8 O48'
_cell_volume   1295.54131824
_cell_formula_units_Z   4
loop_
 _symmetry_equiv_pos_site_id
 _symmetry_equiv_pos_as_xyz
  1  'x, y, z'
loop_
 _atom_site_type_symbol
 _atom_site_label
 _atom_site_symmetry_multiplicity
 _atom_site_fract_x
 _atom_site_fract_y
 _atom_site_fract_z
 _atom_site_occupancy
  Co  Co0  1  0.30204333  0.68215131  0.83182395  1
  Co  Co1  1  0.81785618  0.19797118  0.33181725  1
  Co  Co2  1  -0.00000000  0.50000000  0.91702049  1
  Co  Co3  1  0.31785241  0.30203007  0.66818362  1
  Co  Co4  1  0.50000000  0.00000000  0.58297927  1
  Co  Co5  1  0.68214759  0.69796993  0.66818362  1
  Co  Co6  1  0.69795667  0.31784869  0.83182395  1
  Co  Co7  1  -0.00000000  0.50000000  0.58297984  1
  Co  Co8  1  0.19795803  0.18215035  0.83182203  1
  Co  Co9  1  0.18214382  0.80202882  0.66818275  1
  Co  Co10  1  0.80204197  0.81784965  0.16817797  1
  Co  Co11  1  0.80204197  0.81784965  0.83182203  1
  Co  Co12  1  0.19795803  0.18215035  0.16817797  1
  Co  Co13  1  -0.00000000  0.50000000  0.08297951  1
  Co  Co14  1  0.81785618  0.19797118  0.66818275  1
  Co  Co15  1  0.50000000  0.00000000  0.41702073  1
  Co  Co16  1  0.50000000  0.00000000  0.91701549  1
  Co  Co17  1  0.50000000  0.00000000  0.08298451  1
  Co  Co18  1  0.31785241  0.30203007  0.33181638  1
  Co  Co19  1  0.69795667  0.31784869  0.16817605  1
  Co  Co20  1  -0.00000000  0.50000000  0.41702016  1
  Co  Co21  1  0.68214759  0.69796993  0.33181638  1
  Co  Co22  1  0.30204333  0.68215131  0.16817605  1
  Co  Co23  1  0.18214382  0.80202882  0.33181725  1
  Te  Te24  1  0.31202346  0.67995461  0.50000000  1
  Te  Te25  1  0.81201723  0.82005127  0.50000000  1
  Te  Te26  1  0.67994471  0.68800044  0.00000000  1
  Te  Te27  1  0.18798277  0.17994873  0.50000000  1
  Te  Te28  1  -0.00000000  0.50000000  0.24997735  1
  Te  Te29  1  0.50000000  0.00000000  0.75001699  1
  Te  Te30  1  0.32005529  0.31199956  0.00000000  1
  Te  Te31  1  -0.00000000  0.50000000  0.75002265  1
  Te  Te32  1  0.17995569  0.81203182  0.00000000  1
  Te  Te33  1  0.82004431  0.18796818  0.00000000  1
  Te  Te34  1  0.50000000  0.00000000  0.24998301  1
  Te  Te35  1  0.68797654  0.32004539  0.50000000  1
  Cl  Cl36  1  -0.00000000  0.00000000  0.85540688  1
  Cl  Cl37  1  0.50000000  0.50000000  0.85540651  1
  Cl  Cl38  1  -0.00000000  0.00000000  0.35539928  1
  Cl  Cl39  1  -0.00000000  0.00000000  0.14459312  1
  Cl  Cl40  1  -0.00000000  0.00000000  0.64460072  1
  Cl  Cl41  1  0.50000000  0.50000000  0.35539925  1
  Cl  Cl42  1  0.50000000  0.50000000  0.14459349  1
  Cl  Cl43  1  0.50000000  0.50000000  0.64460075  1
  O  O44  1  0.35626733  0.90341599  0.50000000  1
  O  O45  1  0.16454608  0.66454466  0.75000303  1
  O  O46  1  0.15975302  0.68994462  0.57526632  1
  O  O47  1  0.38408226  0.89852843  0.17213324  1
  O  O48  1  0.81005190  0.34025012  0.07526496  1
  O  O49  1  0.31005367  0.15973442  0.07526517  1
  O  O50  1  0.65975545  0.81005512  0.57526758  1
  O  O51  1  0.10147448  0.38405985  0.67213602  1
  O  O52  1  0.38408226  0.89852843  0.82786676  1
  O  O53  1  0.14373131  0.40341080  0.50000000  1
  O  O54  1  0.18994810  0.65974988  0.07526496  1
  O  O55  1  0.61591774  0.10147157  0.17213324  1
  O  O56  1  0.11591996  0.39853094  0.17212981  1
  O  O57  1  0.16454608  0.66454466  0.24999697  1
  O  O58  1  0.84024698  0.31005538  0.57526632  1
  O  O59  1  0.68994633  0.84026558  0.07526517  1
  O  O60  1  0.89852552  0.61594015  0.32786398  1
  O  O61  1  0.40343082  0.85624885  0.00000000  1
  O  O62  1  0.83545392  0.33545534  0.24999697  1
  O  O63  1  0.11591996  0.39853094  0.82787019  1
  O  O64  1  0.66454809  0.83545823  0.74999951  1
  O  O65  1  0.34024455  0.18994488  0.57526758  1
  O  O66  1  0.64373267  0.09658401  0.50000000  1
  O  O67  1  0.18994810  0.65974988  0.92473504  1
  O  O68  1  0.39852302  0.88405916  0.32786555  1
  O  O69  1  0.85626869  0.59658920  0.50000000  1
  O  O70  1  0.39852302  0.88405916  0.67213445  1
  O  O71  1  0.65975545  0.81005512  0.42473242  1
  O  O72  1  0.34024455  0.18994488  0.42473242  1
  O  O73  1  0.10147448  0.38405985  0.32786398  1
  O  O74  1  0.68994633  0.84026558  0.92473483  1
  O  O75  1  0.33545191  0.16454177  0.25000049  1
  O  O76  1  0.15975302  0.68994462  0.42473368  1
  O  O77  1  0.84024698  0.31005538  0.42473368  1
  O  O78  1  0.66454809  0.83545823  0.25000049  1
  O  O79  1  0.88408004  0.60146906  0.82787019  1
  O  O80  1  0.89852552  0.61594015  0.67213602  1
  O  O81  1  0.59656918  0.14375115  0.00000000  1
  O  O82  1  0.60147698  0.11594084  0.67213445  1
  O  O83  1  0.81005190  0.34025012  0.92473504  1
  O  O84  1  0.83545392  0.33545534  0.75000303  1
  O  O85  1  0.61591774  0.10147157  0.82786676  1
  O  O86  1  0.33545191  0.16454177  0.74999951  1
  O  O87  1  0.31005367  0.15973442  0.92473483  1
  O  O88  1  0.09658304  0.35624822  0.00000000  1
  O  O89  1  0.90341696  0.64375178  0.00000000  1
  O  O90  1  0.60147698  0.11594084  0.32786555  1
  O  O91  1  0.88408004  0.60146906  0.17212981  1
