# generated using pymatgen
data_Cr2Te4O11
_symmetry_space_group_name_H-M   'P 1'
_cell_length_a   7.59982882
_cell_length_b   6.98623721
_cell_length_c   9.74710452
_cell_angle_alpha   80.06514717
_cell_angle_beta   90.00000000
_cell_angle_gamma   90.00000000
_symmetry_Int_Tables_number   1
_chemical_formula_structural   Cr2Te4O11
_chemical_formula_sum   'Cr4 Te8 O22'
_cell_volume   509.75442189
_cell_formula_units_Z   2
loop_
 _symmetry_equiv_pos_site_id
 _symmetry_equiv_pos_as_xyz
  1  'x, y, z'
loop_
 _atom_site_type_symbol
 _atom_site_label
 _atom_site_symmetry_multiplicity
 _atom_site_fract_x
 _atom_site_fract_y
 _atom_site_fract_z
 _atom_site_occupancy
  Cr  Cr0  1  0.49831663  0.68153907  0.38455443  1
  Cr  Cr1  1  -0.00168337  0.31846093  0.11544557  1
  Cr  Cr2  1  0.50168337  0.31846093  0.61544557  1
  Cr  Cr3  1  0.00168337  0.68153907  0.88455443  1
  Te  Te4  1  0.14003286  0.85476679  0.17702186  1
  Te  Te5  1  0.64003286  0.14523321  0.32297814  1
  Te  Te6  1  0.85996714  0.14523321  0.82297814  1
  Te  Te7  1  0.35996714  0.85476679  0.67702186  1
  Te  Te8  1  0.13939457  0.32401893  0.41511385  1
  Te  Te9  1  0.63939457  0.67598107  0.08488615  1
  Te  Te10  1  0.86060543  0.67598107  0.58488615  1
  Te  Te11  1  0.36060543  0.32401893  0.91511385  1
  O  O12  1  0.35210084  0.84100453  0.48705872  1
  O  O13  1  0.85210084  0.15899547  0.01294128  1
  O  O14  1  0.64789916  0.15899547  0.51294128  1
  O  O15  1  0.14789916  0.84100453  0.98705872  1
  O  O16  1  0.35918002  0.43721645  0.45068030  1
  O  O17  1  0.85918002  0.56278355  0.04931970  1
  O  O18  1  0.64081998  0.56278355  0.54931970  1
  O  O19  1  0.14081998  0.43721645  0.95068030  1
  O  O20  1  0.63132554  0.53155115  0.26371651  1
  O  O21  1  0.13132554  0.46844885  0.23628349  1
  O  O22  1  0.36867446  0.46844885  0.73628349  1
  O  O23  1  0.86867446  0.53155115  0.76371651  1
  O  O24  1  0.68489422  0.87490374  0.34434924  1
  O  O25  1  0.18489422  0.12509626  0.15565076  1
  O  O26  1  0.31510578  0.12509626  0.65565076  1
  O  O27  1  0.81510578  0.87490374  0.84434924  1
  O  O28  1  0.37876301  0.79357591  0.21043940  1
  O  O29  1  0.87876301  0.20642409  0.28956060  1
  O  O30  1  0.62123699  0.20642409  0.78956060  1
  O  O31  1  0.12123699  0.79357591  0.71043940  1
  O  O32  1  -0.00000000  0.50000000  0.50000000  1
  O  O33  1  0.50000000  0.50000000  -0.00000000  1
