# generated using pymatgen
data_In2Ge2O7
_symmetry_space_group_name_H-M   'P 1'
_cell_length_a   4.95382364
_cell_length_b   5.54515356
_cell_length_c   5.54515251
_cell_angle_alpha   105.64617523
_cell_angle_beta   97.46210649
_cell_angle_gamma   97.46209063
_symmetry_Int_Tables_number   1
_chemical_formula_structural   In2Ge2O7
_chemical_formula_sum   'In2 Ge2 O7'
_cell_volume   143.25187527
_cell_formula_units_Z   1
loop_
 _symmetry_equiv_pos_site_id
 _symmetry_equiv_pos_as_xyz
  1  'x, y, z'
loop_
 _atom_site_type_symbol
 _atom_site_label
 _atom_site_symmetry_multiplicity
 _atom_site_fract_x
 _atom_site_fract_y
 _atom_site_fract_z
 _atom_site_occupancy
  In  In0  1  0.00000000  0.30701739  0.69298261  1
  In  In1  1  -0.00000000  0.69298261  0.30701739  1
  Ge  Ge2  1  0.40715708  0.23409720  0.23409720  1
  Ge  Ge3  1  0.59284292  0.76590280  0.76590280  1
  O  O4  1  0.78832988  0.92576335  0.59464211  1
  O  O5  1  0.21167012  0.40535789  0.07423665  1
  O  O6  1  0.21167012  0.07423665  0.40535789  1
  O  O7  1  0.78832988  0.59464211  0.92576335  1
  O  O8  1  0.50000000  -0.00000000  -0.00000000  1
  O  O9  1  0.27347076  0.59026681  0.59026681  1
  O  O10  1  0.72652924  0.40973319  0.40973319  1
