# generated using pymatgen
data_Ga10GePb3O20
_symmetry_space_group_name_H-M   'P 1'
_cell_length_a   9.79116935
_cell_length_b   9.79116935
_cell_length_c   5.11720294
_cell_angle_alpha   74.87729908
_cell_angle_beta   74.87729908
_cell_angle_gamma   73.60532334
_symmetry_Int_Tables_number   1
_chemical_formula_structural   Ga10GePb3O20
_chemical_formula_sum   'Ga10 Ge1 Pb3 O20'
_cell_volume   444.94289072
_cell_formula_units_Z   1
loop_
 _symmetry_equiv_pos_site_id
 _symmetry_equiv_pos_as_xyz
  1  'x, y, z'
loop_
 _atom_site_type_symbol
 _atom_site_label
 _atom_site_symmetry_multiplicity
 _atom_site_fract_x
 _atom_site_fract_y
 _atom_site_fract_z
 _atom_site_occupancy
  Ga  Ga0  1  0.63284482  0.36715518  0.50000000  1
  Ga  Ga1  1  0.36715518  0.63284482  0.50000000  1
  Ga  Ga2  1  0.27944590  0.00652289  0.37370199  1
  Ga  Ga3  1  0.99347711  0.72055410  0.62629801  1
  Ga  Ga4  1  0.72055410  0.99347711  0.62629801  1
  Ga  Ga5  1  0.00652289  0.27944590  0.37370199  1
  Ga  Ga6  1  0.57775598  0.15126802  0.10604486  1
  Ga  Ga7  1  0.84873198  0.42224402  0.89395514  1
  Ga  Ga8  1  0.42224402  0.84873198  0.89395514  1
  Ga  Ga9  1  0.15126802  0.57775598  0.10604486  1
  Ge  Ge10  1  0.50000000  0.50000000  0.00000000  1
  Pb  Pb11  1  -0.00000000  0.00000000  0.00000000  1
  Pb  Pb12  1  0.72309920  0.72309920  0.22022072  1
  Pb  Pb13  1  0.27690080  0.27690080  0.77977928  1
  O  O14  1  0.56681213  0.56681213  0.25026646  1
  O  O15  1  0.43318787  0.43318787  0.74973354  1
  O  O16  1  0.09694782  0.09694782  0.30525712  1
  O  O17  1  0.90305218  0.90305218  0.69474288  1
  O  O18  1  0.39583862  0.12373130  0.13231256  1
  O  O19  1  0.87626870  0.60416138  0.86768744  1
  O  O20  1  0.60416138  0.87626870  0.86768744  1
  O  O21  1  0.12373130  0.39583862  0.13231256  1
  O  O22  1  0.33925122  0.82684103  0.27066125  1
  O  O23  1  0.17315897  0.66074878  0.72933875  1
  O  O24  1  0.66074878  0.17315897  0.72933875  1
  O  O25  1  0.82684103  0.33925122  0.27066125  1
  O  O26  1  0.99088177  0.28126405  0.73771496  1
  O  O27  1  0.71873595  0.00911823  0.26228504  1
  O  O28  1  0.00911823  0.71873595  0.26228504  1
  O  O29  1  0.28126405  0.99088177  0.73771496  1
  O  O30  1  0.68306214  0.45461802  0.75851057  1
  O  O31  1  0.54538198  0.31693786  0.24148943  1
  O  O32  1  0.31693786  0.54538198  0.24148943  1
  O  O33  1  0.45461802  0.68306214  0.75851057  1
