# generated using pymatgen
data_Cs2Bi4O7
_symmetry_space_group_name_H-M   'P 1'
_cell_length_a   12.57197057
_cell_length_b   12.57197057
_cell_length_c   15.96666354
_cell_angle_alpha   84.96658245
_cell_angle_beta   84.96658245
_cell_angle_gamma   62.58839429
_symmetry_Int_Tables_number   1
_chemical_formula_structural   Cs2Bi4O7
_chemical_formula_sum   'Cs16 Bi32 O56'
_cell_volume   2228.41770446
_cell_formula_units_Z   8
loop_
 _symmetry_equiv_pos_site_id
 _symmetry_equiv_pos_as_xyz
  1  'x, y, z'
loop_
 _atom_site_type_symbol
 _atom_site_label
 _atom_site_symmetry_multiplicity
 _atom_site_fract_x
 _atom_site_fract_y
 _atom_site_fract_z
 _atom_site_occupancy
  Cs  Cs0  1  0.37638202  0.97766972  0.20580536  1
  Cs  Cs1  1  0.03084586  0.12421047  0.29237952  1
  Cs  Cs2  1  0.13598442  0.54259378  0.79312410  1
  Cs  Cs3  1  0.12421047  0.03084586  0.79237952  1
  Cs  Cs4  1  0.02233028  0.62361798  0.29419464  1
  Cs  Cs5  1  0.36102662  0.46519400  0.21205633  1
  Cs  Cs6  1  0.54259378  0.13598442  0.29312410  1
  Cs  Cs7  1  0.96915414  0.87578953  0.70762048  1
  Cs  Cs8  1  0.45740622  0.86401558  0.70687590  1
  Cs  Cs9  1  0.63897338  0.53480600  0.78794367  1
  Cs  Cs10  1  0.46519400  0.36102662  0.71205633  1
  Cs  Cs11  1  0.62361798  0.02233028  0.79419464  1
  Cs  Cs12  1  0.86401558  0.45740622  0.20687590  1
  Cs  Cs13  1  0.97766972  0.37638202  0.70580536  1
  Cs  Cs14  1  0.87578953  0.96915414  0.20762048  1
  Cs  Cs15  1  0.53480600  0.63897338  0.28794367  1
  Bi  Bi16  1  0.69782395  0.29430713  0.38215723  1
  Bi  Bi17  1  0.45615939  0.39952502  0.96774119  1
  Bi  Bi18  1  0.90847476  0.89070584  0.46075737  1
  Bi  Bi19  1  0.39466775  0.90658900  0.95893181  1
  Bi  Bi20  1  0.54384061  0.60047498  0.03225881  1
  Bi  Bi21  1  0.60129675  0.04092875  0.53593441  1
  Bi  Bi22  1  0.20985625  0.29991714  0.11171136  1
  Bi  Bi23  1  0.09341100  0.60533225  0.54106819  1
  Bi  Bi24  1  0.89070584  0.90847476  0.96075737  1
  Bi  Bi25  1  0.09152524  0.10929416  0.53924263  1
  Bi  Bi26  1  0.60047498  0.54384061  0.53225881  1
  Bi  Bi27  1  0.29430713  0.69782395  0.88215723  1
  Bi  Bi28  1  0.23753991  0.78810931  0.12004048  1
  Bi  Bi29  1  0.30217605  0.70569287  0.61784277  1
  Bi  Bi30  1  0.20984674  0.26786646  0.37258782  1
  Bi  Bi31  1  0.76246009  0.21189069  0.87995952  1
  Bi  Bi32  1  0.79014375  0.70008286  0.88828864  1
  Bi  Bi33  1  0.39952502  0.45615939  0.46774119  1
  Bi  Bi34  1  0.78810931  0.23753991  0.62004048  1
  Bi  Bi35  1  0.73213354  0.79015326  0.12741218  1
  Bi  Bi36  1  0.29991714  0.20985625  0.61171136  1
  Bi  Bi37  1  0.60533225  0.09341100  0.04106819  1
  Bi  Bi38  1  0.95907125  0.39870325  0.96406559  1
  Bi  Bi39  1  0.70008286  0.79014375  0.38828864  1
  Bi  Bi40  1  0.79015326  0.73213354  0.62741218  1
  Bi  Bi41  1  0.21189069  0.76246009  0.37995952  1
  Bi  Bi42  1  0.26786646  0.20984674  0.87258782  1
  Bi  Bi43  1  0.70569287  0.30217605  0.11784277  1
  Bi  Bi44  1  0.39870325  0.95907125  0.46406559  1
  Bi  Bi45  1  0.10929416  0.09152524  0.03924263  1
  Bi  Bi46  1  0.90658900  0.39466775  0.45893181  1
  Bi  Bi47  1  0.04092875  0.60129675  0.03593441  1
  O  O48  1  0.58646502  0.23139024  0.89962943  1
  O  O49  1  0.43549673  0.74231936  0.88309712  1
  O  O50  1  0.09048230  0.77504906  0.52360601  1
  O  O51  1  0.61525040  0.41526633  0.97381703  1
  O  O52  1  0.02719387  0.84708335  0.34979646  1
  O  O53  1  0.64972243  0.97496308  0.15355885  1
  O  O54  1  0.41526633  0.61525040  0.47381703  1
  O  O55  1  0.11570315  0.41734699  0.97362276  1
  O  O56  1  0.25768064  0.56450327  0.61690288  1
  O  O57  1  0.26345010  0.24472106  0.24105179  1
  O  O58  1  0.74231936  0.43549673  0.38309712  1
  O  O59  1  0.35027757  0.02503692  0.84644115  1
  O  O60  1  0.74667901  0.25332099  0.25000000  1
  O  O61  1  0.22495094  0.90951770  0.97639399  1
  O  O62  1  0.84708335  0.02719387  0.84979646  1
  O  O63  1  0.27887552  0.08862101  0.02017782  1
  O  O64  1  0.76357308  0.91054335  0.60865214  1
  O  O65  1  0.91137899  0.72112448  0.47982218  1
  O  O66  1  0.51726558  0.89961404  0.35493035  1
  O  O67  1  0.41353498  0.76860976  0.10037057  1
  O  O68  1  0.90951770  0.22495094  0.47639399  1
  O  O69  1  0.08862101  0.27887552  0.52017782  1
  O  O70  1  0.41734699  0.11570315  0.47362276  1
  O  O71  1  0.75527894  0.73654990  0.25894821  1
  O  O72  1  0.40206051  0.51266175  0.85534514  1
  O  O73  1  0.02503692  0.35027757  0.34644115  1
  O  O74  1  0.73654990  0.75527894  0.75894821  1
  O  O75  1  0.24472106  0.26345010  0.74105179  1
  O  O76  1  0.25231611  0.06970259  0.61570174  1
  O  O77  1  0.89961404  0.51726558  0.85493035  1
  O  O78  1  0.91054335  0.76357308  0.10865214  1
  O  O79  1  0.23642692  0.08945665  0.39134786  1
  O  O80  1  0.58473367  0.38474960  0.52618297  1
  O  O81  1  0.76860976  0.41353498  0.60037057  1
  O  O82  1  0.97496308  0.64972243  0.65355885  1
  O  O83  1  0.74768389  0.93029741  0.38429826  1
  O  O84  1  0.27116953  0.72883047  0.25000000  1
  O  O85  1  0.25332099  0.74667901  0.75000000  1
  O  O86  1  0.38474960  0.58473367  0.02618297  1
  O  O87  1  0.72883047  0.27116953  0.75000000  1
  O  O88  1  0.72112448  0.91137899  0.97982218  1
  O  O89  1  0.48733825  0.59793949  0.64465486  1
  O  O90  1  0.48273442  0.10038596  0.64506965  1
  O  O91  1  0.06970259  0.25231611  0.11570174  1
  O  O92  1  0.93029741  0.74768389  0.88429826  1
  O  O93  1  0.77504906  0.09048230  0.02360601  1
  O  O94  1  0.51266175  0.40206051  0.35534514  1
  O  O95  1  0.56450327  0.25768064  0.11690288  1
  O  O96  1  0.15291665  0.97280613  0.15020354  1
  O  O97  1  0.08945665  0.23642692  0.89134786  1
  O  O98  1  0.59793949  0.48733825  0.14465486  1
  O  O99  1  0.97280613  0.15291665  0.65020354  1
  O  O100  1  0.10038596  0.48273442  0.14506965  1
  O  O101  1  0.88429685  0.58265301  0.02637724  1
  O  O102  1  0.23139024  0.58646502  0.39962943  1
  O  O103  1  0.58265301  0.88429685  0.52637724  1
