# generated using pymatgen
data_K4W2Cl10O
_symmetry_space_group_name_H-M   'P 1'
_cell_length_a   7.35071299
_cell_length_b   7.35071234
_cell_length_c   10.40763512
_cell_angle_alpha   110.67951339
_cell_angle_beta   110.67951329
_cell_angle_gamma   90.00000296
_symmetry_Int_Tables_number   1
_chemical_formula_structural   K4W2Cl10O
_chemical_formula_sum   'K4 W2 Cl10 O1'
_cell_volume   487.20365685
_cell_formula_units_Z   1
loop_
 _symmetry_equiv_pos_site_id
 _symmetry_equiv_pos_as_xyz
  1  'x, y, z'
loop_
 _atom_site_type_symbol
 _atom_site_label
 _atom_site_symmetry_multiplicity
 _atom_site_fract_x
 _atom_site_fract_y
 _atom_site_fract_z
 _atom_site_occupancy
  K  K0  1  0.75000000  0.25000000  0.50000000  1
  K  K1  1  0.00000000  0.50000000  0.00000000  1
  K  K2  1  0.25000000  0.75000000  0.50000000  1
  K  K3  1  0.50000000  0.00000000  0.00000000  1
  W  W4  1  0.10658600  0.10658600  0.21317200  1
  W  W5  1  0.89341400  0.89341400  0.78682800  1
  Cl  Cl6  1  0.12551100  0.65055900  0.77607200  1
  Cl  Cl7  1  0.34944100  0.34944100  0.22392800  1
  Cl  Cl8  1  0.75786600  0.75786600  0.51573300  1
  Cl  Cl9  1  0.24213400  0.24213400  0.48426700  1
  Cl  Cl10  1  0.65055900  0.12551100  0.77607200  1
  Cl  Cl11  1  0.34944100  0.87448900  0.22392800  1
  Cl  Cl12  1  0.65055900  0.65055900  0.77607200  1
  Cl  Cl13  1  0.87448900  0.87448900  0.22392800  1
  Cl  Cl14  1  0.12551100  0.12551100  0.77607200  1
  Cl  Cl15  1  0.87448900  0.34944100  0.22392800  1
  O  O16  1  0.00000000  0.00000000  0.00000000  1
