# generated using pymatgen
data_Pr4S3N2
_symmetry_space_group_name_H-M   'P 1'
_cell_length_a   10.31812944
_cell_length_b   10.31812342
_cell_length_c   12.81366105
_cell_angle_alpha   52.16617963
_cell_angle_beta   52.16614360
_cell_angle_gamma   57.88738448
_symmetry_Int_Tables_number   1
_chemical_formula_structural   Pr4S3N2
_chemical_formula_sum   'Pr16 S12 N8'
_cell_volume   824.12947068
_cell_formula_units_Z   4
loop_
 _symmetry_equiv_pos_site_id
 _symmetry_equiv_pos_as_xyz
  1  'x, y, z'
loop_
 _atom_site_type_symbol
 _atom_site_label
 _atom_site_symmetry_multiplicity
 _atom_site_fract_x
 _atom_site_fract_y
 _atom_site_fract_z
 _atom_site_occupancy
  Pr  Pr0  1  0.71749247  0.63617702  0.43683067  1
  Pr  Pr1  1  0.18833282  0.08240203  0.97591555  1
  Pr  Pr2  1  0.08240135  0.18833228  0.47591717  1
  Pr  Pr3  1  0.28250706  0.36382371  0.56316930  1
  Pr  Pr4  1  0.63617734  0.71749258  0.93683000  1
  Pr  Pr5  1  0.61318782  0.20280502  0.68467054  1
  Pr  Pr6  1  0.81225939  0.42180238  0.25451735  1
  Pr  Pr7  1  0.38681209  0.79719514  0.31532956  1
  Pr  Pr8  1  0.20280541  0.61318772  0.18467049  1
  Pr  Pr9  1  0.36382276  0.28250740  0.06317003  1
  Pr  Pr10  1  0.91759886  0.81166760  0.52408289  1
  Pr  Pr11  1  0.42180306  0.81225985  0.75451656  1
  Pr  Pr12  1  0.81166754  0.91759827  0.02408405  1
  Pr  Pr13  1  0.18774031  0.57819820  0.74548275  1
  Pr  Pr14  1  0.57819694  0.18773989  0.24548383  1
  Pr  Pr15  1  0.79719477  0.38681212  0.81532929  1
  S  S16  1  0.09728334  0.10268452  0.77529037  1
  S  S17  1  0.52102381  0.47897620  0.75000012  1
  S  S18  1  0.38974800  0.88790163  0.49187319  1
  S  S19  1  0.11209785  0.61025157  0.00812720  1
  S  S20  1  0.47897629  0.52102374  0.24999991  1
  S  S21  1  0.10268557  0.09728264  0.27529241  1
  S  S22  1  0.90271665  0.89731566  0.22470947  1
  S  S23  1  0.61025151  0.11209768  0.50812731  1
  S  S24  1  0.00000002  0.49999993  0.49999992  1
  S  S25  1  0.89731550  0.90271810  0.72470768  1
  S  S26  1  0.88790234  0.38974866  0.99187230  1
  S  S27  1  0.50000025  -0.00000001  0.00000002  1
  N  N28  1  0.30203504  0.31533422  0.25584283  1
  N  N29  1  0.31533458  0.30203576  0.75584183  1
  N  N30  1  0.64539789  0.18588171  0.03696201  1
  N  N31  1  0.68466535  0.69796475  0.24415810  1
  N  N32  1  0.69796501  0.68466556  0.74415724  1
  N  N33  1  0.35460217  0.81411830  0.96303797  1
  N  N34  1  0.81411814  0.35460178  0.46303874  1
  N  N35  1  0.18588167  0.64539839  0.53696134  1
