# generated using pymatgen
data_KCO2
_symmetry_space_group_name_H-M   'P 1'
_cell_length_a   3.39509558
_cell_length_b   6.11207438
_cell_length_c   10.89217047
_cell_angle_alpha   90.00000000
_cell_angle_beta   90.00000000
_cell_angle_gamma   90.00000000
_symmetry_Int_Tables_number   1
_chemical_formula_structural   KCO2
_chemical_formula_sum   'K4 C4 O8'
_cell_volume   226.02426498
_cell_formula_units_Z   4
loop_
 _symmetry_equiv_pos_site_id
 _symmetry_equiv_pos_as_xyz
  1  'x, y, z'
loop_
 _atom_site_type_symbol
 _atom_site_label
 _atom_site_symmetry_multiplicity
 _atom_site_fract_x
 _atom_site_fract_y
 _atom_site_fract_z
 _atom_site_occupancy
  K  K0  1  0.50000000  0.90423920  0.85008536  1
  K  K1  1  0.50000000  0.09576080  0.14991464  1
  K  K2  1  0.50000000  0.40423920  0.64991464  1
  K  K3  1  0.50000000  0.59576080  0.35008536  1
  C  C4  1  -0.00000000  0.43020184  0.93901806  1
  C  C5  1  0.00000000  0.93020184  0.56098194  1
  C  C6  1  0.00000000  0.06979816  0.43901806  1
  C  C7  1  -0.00000000  0.56979816  0.06098194  1
  O  O8  1  -0.00000000  0.53510780  0.83910658  1
  O  O9  1  0.00000000  0.03510780  0.66089342  1
  O  O10  1  -0.00000000  0.22513206  0.95069782  1
  O  O11  1  0.00000000  0.96489220  0.33910658  1
  O  O12  1  -0.00000000  0.27486794  0.45069782  1
  O  O13  1  0.00000000  0.77486794  0.04930218  1
  O  O14  1  -0.00000000  0.46489220  0.16089342  1
  O  O15  1  0.00000000  0.72513206  0.54930218  1
