# generated using pymatgen
data_Na2TeSe3
_symmetry_space_group_name_H-M   'P 1'
_cell_length_a   11.27234863
_cell_length_b   11.27234863
_cell_length_c   12.03301866
_cell_angle_alpha   60.01966403
_cell_angle_beta   60.01966403
_cell_angle_gamma   30.91205055
_symmetry_Int_Tables_number   1
_chemical_formula_structural   Na2TeSe3
_chemical_formula_sum   'Na8 Te4 Se12'
_cell_volume   671.66315474
_cell_formula_units_Z   4
loop_
 _symmetry_equiv_pos_site_id
 _symmetry_equiv_pos_as_xyz
  1  'x, y, z'
loop_
 _atom_site_type_symbol
 _atom_site_label
 _atom_site_symmetry_multiplicity
 _atom_site_fract_x
 _atom_site_fract_y
 _atom_site_fract_z
 _atom_site_occupancy
  Na  Na0  1  0.25774924  0.23929388  0.12437543  1
  Na  Na1  1  0.53884127  0.60576415  0.80830315  1
  Na  Na2  1  0.23929388  0.25774924  0.62437543  1
  Na  Na3  1  0.76070612  0.74225076  0.37562457  1
  Na  Na4  1  0.39423585  0.46115873  0.69169685  1
  Na  Na5  1  0.74225076  0.76070612  0.87562457  1
  Na  Na6  1  0.60576415  0.53884127  0.30830315  1
  Na  Na7  1  0.46115873  0.39423585  0.19169685  1
  Te  Te8  1  0.05597883  0.15934911  0.99086116  1
  Te  Te9  1  0.94402117  0.84065089  0.00913884  1
  Te  Te10  1  0.84065089  0.94402117  0.50913884  1
  Te  Te11  1  0.15934911  0.05597883  0.49086116  1
  Se  Se12  1  0.25013937  0.23297266  0.38150521  1
  Se  Se13  1  0.62635324  0.55303623  0.04176120  1
  Se  Se14  1  0.74986063  0.76702734  0.61849479  1
  Se  Se15  1  0.37364676  0.44696377  0.95823880  1
  Se  Se16  1  0.94657854  0.88028987  0.19572374  1
  Se  Se17  1  0.23297266  0.25013937  0.88150521  1
  Se  Se18  1  0.55303623  0.62635324  0.54176120  1
  Se  Se19  1  0.44696377  0.37364676  0.45823880  1
  Se  Se20  1  0.88028987  0.94657854  0.69572374  1
  Se  Se21  1  0.76702734  0.74986063  0.11849479  1
  Se  Se22  1  0.05342146  0.11971013  0.80427626  1
  Se  Se23  1  0.11971013  0.05342146  0.30427626  1
