# generated using pymatgen
data_Na5(InTe3)2
_symmetry_space_group_name_H-M   'P 1'
_cell_length_a   8.92847061
_cell_length_b   8.92847061
_cell_length_c   23.61058246
_cell_angle_alpha   90.00000000
_cell_angle_beta   90.00000000
_cell_angle_gamma   118.92409229
_symmetry_Int_Tables_number   1
_chemical_formula_structural   Na5(InTe3)2
_chemical_formula_sum   'Na20 In8 Te24'
_cell_volume   1647.39802901
_cell_formula_units_Z   4
loop_
 _symmetry_equiv_pos_site_id
 _symmetry_equiv_pos_as_xyz
  1  'x, y, z'
loop_
 _atom_site_type_symbol
 _atom_site_label
 _atom_site_symmetry_multiplicity
 _atom_site_fract_x
 _atom_site_fract_y
 _atom_site_fract_z
 _atom_site_occupancy
  Na  Na0  1  0.75301444  0.74642627  0.24870877  1
  Na  Na1  1  0.24698556  0.25357373  0.74870877  1
  Na  Na2  1  0.25357373  0.24698556  0.24870877  1
  Na  Na3  1  0.74642627  0.75301444  0.74870877  1
  Na  Na4  1  0.00906857  0.50289773  0.25153518  1
  Na  Na5  1  0.99093143  0.49710227  0.75153518  1
  Na  Na6  1  0.49710227  0.99093143  0.25153518  1
  Na  Na7  1  0.50289773  0.00906857  0.75153518  1
  Na  Na8  1  0.91575622  0.56516726  0.08876213  1
  Na  Na9  1  0.08424378  0.43483274  0.58876213  1
  Na  Na10  1  0.43483274  0.08424378  0.08876213  1
  Na  Na11  1  0.56516726  0.91575622  0.58876213  1
  Na  Na12  1  0.15994342  0.31331038  0.41232172  1
  Na  Na13  1  0.84005658  0.68668962  0.91232172  1
  Na  Na14  1  0.68668962  0.84005658  0.41232172  1
  Na  Na15  1  0.31331038  0.15994342  0.91232172  1
  Na  Na16  1  0.18307209  0.43203630  -0.00047379  1
  Na  Na17  1  0.81692791  0.56796370  0.49952621  1
  Na  Na18  1  0.56796370  0.81692791  -0.00047379  1
  Na  Na19  1  0.43203630  0.18307209  0.49952621  1
  In  In20  1  0.96628851  0.03371149  0.12037184  1
  In  In21  1  0.03371149  0.96628851  0.62037184  1
  In  In22  1  0.73513584  0.26486416  0.37809618  1
  In  In23  1  0.26486416  0.73513584  0.87809618  1
  In  In24  1  0.21628945  0.78371055  0.38225647  1
  In  In25  1  0.78371055  0.21628945  0.88225647  1
  In  In26  1  0.48798056  0.51201944  0.12005348  1
  In  In27  1  0.51201944  0.48798056  0.62005348  1
  Te  Te28  1  0.78096702  0.21903298  0.00308209  1
  Te  Te29  1  0.21903298  0.78096702  0.50308209  1
  Te  Te30  1  0.87828202  0.12171798  0.30787466  1
  Te  Te31  1  0.12171798  0.87828202  0.80787466  1
  Te  Te32  1  0.63008687  0.36991313  0.19088270  1
  Te  Te33  1  0.36991313  0.63008687  0.69088270  1
  Te  Te34  1  0.96952644  0.03047356  0.99928936  1
  Te  Te35  1  0.03047356  0.96952644  0.49928936  1
  Te  Te36  1  0.85953367  0.62180957  0.35977776  1
  Te  Te37  1  0.14046633  0.37819043  0.85977776  1
  Te  Te38  1  0.37819043  0.14046633  0.35977776  1
  Te  Te39  1  0.62180957  0.85953367  0.85977776  1
  Te  Te40  1  0.13301053  0.39181419  0.14084960  1
  Te  Te41  1  0.86698947  0.60818581  0.64084960  1
  Te  Te42  1  0.60818581  0.86698947  0.14084960  1
  Te  Te43  1  0.39181419  0.13301053  0.64084960  1
  Te  Te44  1  0.54626704  0.45373296  0.00769044  1
  Te  Te45  1  0.45373296  0.54626704  0.50769044  1
  Te  Te46  1  0.37039546  0.62960454  0.32426296  1
  Te  Te47  1  0.62960454  0.37039546  0.82426296  1
  Te  Te48  1  0.87826426  0.12173574  0.67739534  1
  Te  Te49  1  0.12173574  0.87826426  0.17739534  1
  Te  Te50  1  0.79444471  0.20555529  0.49058075  1
  Te  Te51  1  0.20555529  0.79444471  0.99058075  1
