# generated using pymatgen
data_CdI2
_symmetry_space_group_name_H-M   'P 1'
_cell_length_a   4.28498851
_cell_length_b   4.28498892
_cell_length_c   50.61570053
_cell_angle_alpha   90.00001864
_cell_angle_beta   89.99997624
_cell_angle_gamma   119.99982886
_symmetry_Int_Tables_number   1
_chemical_formula_structural   CdI2
_chemical_formula_sum   'Cd7 I14'
_cell_volume   804.85194348
_cell_formula_units_Z   7
loop_
 _symmetry_equiv_pos_site_id
 _symmetry_equiv_pos_as_xyz
  1  'x, y, z'
loop_
 _atom_site_type_symbol
 _atom_site_label
 _atom_site_symmetry_multiplicity
 _atom_site_fract_x
 _atom_site_fract_y
 _atom_site_fract_z
 _atom_site_occupancy
  Cd  Cd0  1  0.66666700  0.33333300  0.32176264  1
  Cd  Cd1  1  0.66666700  0.33333300  0.46451066  1
  Cd  Cd2  1  0.00000000  -0.00000000  0.60731362  1
  Cd  Cd3  1  -0.00000000  0.00000000  0.75003923  1
  Cd  Cd4  1  0.66666800  0.33333300  0.89273220  1
  Cd  Cd5  1  0.66666700  0.33333300  0.17826151  1
  Cd  Cd6  1  0.66666700  0.33333300  0.03547191  1
  I  I7  1  -0.00000000  0.00000000  0.14418738  1
  I  I8  1  0.66666700  0.33333300  0.57340334  1
  I  I9  1  -0.00000000  0.00000000  0.43050398  1
  I  I10  1  0.33333300  0.66666700  0.06946964  1
  I  I11  1  0.33333300  0.66666700  0.21230366  1
  I  I12  1  0.33333300  0.66666700  0.35582239  1
  I  I13  1  -0.00000000  0.00000000  0.85873691  1
  I  I14  1  0.33333300  0.66666700  0.64126930  1
  I  I15  1  -0.00000000  0.00000000  0.00153763  1
  I  I16  1  0.33333300  0.66666700  0.78407291  1
  I  I17  1  0.33333300  0.66666700  0.92659961  1
  I  I18  1  0.33333300  0.66666700  0.49835895  1
  I  I19  1  0.66666700  0.33333300  0.71594364  1
  I  I20  1  -0.00000000  0.00000000  0.28770188  1
