# generated using pymatgen
data_Na4Si3(SnO6)2
_symmetry_space_group_name_H-M   'P 1'
_cell_length_a   8.95333110
_cell_length_b   8.95333110
_cell_length_c   8.95333146
_cell_angle_alpha   60.85719271
_cell_angle_beta   60.85719271
_cell_angle_gamma   60.85719709
_symmetry_Int_Tables_number   1
_chemical_formula_structural   Na4Si3(SnO6)2
_chemical_formula_sum   'Na8 Si6 Sn4 O24'
_cell_volume   517.31180045
_cell_formula_units_Z   2
loop_
 _symmetry_equiv_pos_site_id
 _symmetry_equiv_pos_as_xyz
  1  'x, y, z'
loop_
 _atom_site_type_symbol
 _atom_site_label
 _atom_site_symmetry_multiplicity
 _atom_site_fract_x
 _atom_site_fract_y
 _atom_site_fract_z
 _atom_site_occupancy
  Na  Na0  1  0.00000000  -0.00000000  -0.00000000  1
  Na  Na1  1  0.75000000  0.38124559  0.11875441  1
  Na  Na2  1  0.38124559  0.11875441  0.75000000  1
  Na  Na3  1  0.11875441  0.75000000  0.38124559  1
  Na  Na4  1  0.88124559  0.25000000  0.61875441  1
  Na  Na5  1  0.50000000  0.50000000  0.50000000  1
  Na  Na6  1  0.61875441  0.88124559  0.25000000  1
  Na  Na7  1  0.25000000  0.61875441  0.88124559  1
  Si  Si8  1  0.45514629  0.75000000  0.04485371  1
  Si  Si9  1  0.25000000  0.95514629  0.54485371  1
  Si  Si10  1  0.54485371  0.25000000  0.95514629  1
  Si  Si11  1  0.04485371  0.45514629  0.75000000  1
  Si  Si12  1  0.95514629  0.54485371  0.25000000  1
  Si  Si13  1  0.75000000  0.04485371  0.45514629  1
  Sn  Sn14  1  0.64526561  0.64526561  0.64526561  1
  Sn  Sn15  1  0.14526561  0.14526561  0.14526561  1
  Sn  Sn16  1  0.85473439  0.85473439  0.85473439  1
  Sn  Sn17  1  0.35473439  0.35473439  0.35473439  1
  O  O18  1  0.28884599  0.12747450  0.51717204  1
  O  O19  1  0.73268364  0.07983396  0.93614610  1
  O  O20  1  0.92016604  0.06385390  0.26731636  1
  O  O21  1  0.98282796  0.37252550  0.21115401  1
  O  O22  1  0.62747450  0.78884599  0.01717204  1
  O  O23  1  0.78884599  0.01717204  0.62747450  1
  O  O24  1  0.37252550  0.21115401  0.98282796  1
  O  O25  1  0.21115401  0.98282796  0.37252550  1
  O  O26  1  0.42016604  0.76731636  0.56385390  1
  O  O27  1  0.56385390  0.42016604  0.76731636  1
  O  O28  1  0.07983396  0.93614610  0.73268364  1
  O  O29  1  0.71115401  0.87252550  0.48282796  1
  O  O30  1  0.23268364  0.43614610  0.57983396  1
  O  O31  1  0.93614610  0.73268364  0.07983396  1
  O  O32  1  0.57983396  0.23268364  0.43614610  1
  O  O33  1  0.51717204  0.28884599  0.12747450  1
  O  O34  1  0.12747450  0.51717204  0.28884599  1
  O  O35  1  0.26731636  0.92016604  0.06385390  1
  O  O36  1  0.43614610  0.57983396  0.23268364  1
  O  O37  1  0.76731636  0.56385390  0.42016604  1
  O  O38  1  0.06385390  0.26731636  0.92016604  1
  O  O39  1  0.87252550  0.48282796  0.71115401  1
  O  O40  1  0.48282796  0.71115401  0.87252550  1
  O  O41  1  0.01717204  0.62747450  0.78884599  1
