# generated using pymatgen
data_Li5B7S13
_symmetry_space_group_name_H-M   'P 1'
_cell_length_a   14.00007587
_cell_length_b   14.00007587
_cell_length_c   12.32493186
_cell_angle_alpha   63.92220882
_cell_angle_beta   63.92220882
_cell_angle_gamma   103.02037570
_symmetry_Int_Tables_number   1
_chemical_formula_structural   Li5B7S13
_chemical_formula_sum   'Li20 B28 S52'
_cell_volume   1666.11927784
_cell_formula_units_Z   4
loop_
 _symmetry_equiv_pos_site_id
 _symmetry_equiv_pos_as_xyz
  1  'x, y, z'
loop_
 _atom_site_type_symbol
 _atom_site_label
 _atom_site_symmetry_multiplicity
 _atom_site_fract_x
 _atom_site_fract_y
 _atom_site_fract_z
 _atom_site_occupancy
  Li  Li0  1  0.96706155  0.68369685  0.25981265  1
  Li  Li1  1  0.68369685  0.96706155  0.75981265  1
  Li  Li2  1  0.01203949  0.01948304  0.53113031  1
  Li  Li3  1  0.32059457  0.88433245  0.88923944  1
  Li  Li4  1  0.88433245  0.32059457  0.38923944  1
  Li  Li5  1  0.44144960  0.22182322  0.59235929  1
  Li  Li6  1  0.22182322  0.44144960  0.09235929  1
  Li  Li7  1  0.78258036  0.71947657  0.10255413  1
  Li  Li8  1  0.71947657  0.78258036  0.60255413  1
  Li  Li9  1  0.55177659  0.04715510  0.42992337  1
  Li  Li10  1  0.04715510  0.55177659  0.92992337  1
  Li  Li11  1  0.29904131  0.22686368  0.38737253  1
  Li  Li12  1  0.22686368  0.29904131  0.88737253  1
  Li  Li13  1  0.77739555  0.55209227  0.92040877  1
  Li  Li14  1  0.55209227  0.77739555  0.42040877  1
  Li  Li15  1  0.11503496  0.68656171  0.57986964  1
  Li  Li16  1  0.68656171  0.11503496  0.07986964  1
  Li  Li17  1  0.29769151  0.02673882  0.25726785  1
  Li  Li18  1  0.02673882  0.29769151  0.75726785  1
  Li  Li19  1  0.01948304  0.01203949  0.03113031  1
  B  B20  1  0.25183470  0.30624163  0.57766858  1
  B  B21  1  0.54656777  0.79437215  0.13766508  1
  B  B22  1  0.27661003  0.72783869  0.24606015  1
  B  B23  1  0.47582962  0.52494153  0.25101659  1
  B  B24  1  0.20530600  0.45457372  0.36201774  1
  B  B25  1  0.69526907  0.74766818  0.92271396  1
  B  B26  1  0.68306534  0.43294882  0.52130338  1
  B  B27  1  0.43294882  0.68306534  0.02130338  1
  B  B28  1  0.61795210  0.17147031  0.63358274  1
  B  B29  1  0.17147031  0.61795210  0.13358274  1
  B  B30  1  0.16445669  0.01473740  0.74230586  1
  B  B31  1  0.08971033  0.74467624  0.92619053  1
  B  B32  1  0.74467624  0.08971033  0.42619053  1
  B  B33  1  0.01473740  0.16445669  0.24230586  1
  B  B34  1  0.98496414  0.83075743  0.75862061  1
  B  B35  1  0.25686041  0.90822072  0.57893927  1
  B  B36  1  0.90822072  0.25686041  0.07893927  1
  B  B37  1  0.83075743  0.98496414  0.25862061  1
  B  B38  1  0.83136646  0.38359446  0.86396384  1
  B  B39  1  0.38359446  0.83136646  0.36396384  1
  B  B40  1  0.56914649  0.31534240  0.97773121  1
  B  B41  1  0.31534240  0.56914649  0.47773121  1
  B  B42  1  0.30624163  0.25183470  0.07766858  1
  B  B43  1  0.79437215  0.54656777  0.63766508  1
  B  B44  1  0.52494153  0.47582962  0.75101659  1
  B  B45  1  0.72783869  0.27661003  0.74606015  1
  B  B46  1  0.45457372  0.20530600  0.86201774  1
  B  B47  1  0.74766818  0.69526907  0.42271396  1
  S  S48  1  0.48357570  0.63037598  0.31245623  1
  S  S49  1  0.20487632  0.56072199  0.42332210  1
  S  S50  1  0.71205708  0.86227644  0.97011700  1
  S  S51  1  0.13866544  0.28908729  0.52879058  1
  S  S52  1  0.44309811  0.79591860  0.07281159  1
  S  S53  1  0.17750906  0.73075887  0.18181500  1
  S  S54  1  0.73075887  0.17750906  0.68181500  1
  S  S55  1  0.37027851  0.51576298  0.18937643  1
  S  S56  1  0.44921329  0.10078524  0.80295041  1
  S  S57  1  0.10078524  0.44921329  0.30295041  1
  S  S58  1  0.74830416  0.59672049  0.35243733  1
  S  S59  1  0.59672049  0.74830416  0.85243733  1
  S  S60  1  0.68005201  0.33272194  0.45617910  1
  S  S61  1  0.20270187  0.15153967  0.75253639  1
  S  S62  1  0.33272194  0.68005201  0.95617910  1
  S  S63  1  0.12747504  0.88341300  0.92989108  1
  S  S64  1  0.04297151  0.59615104  0.10887715  1
  S  S65  1  0.59615104  0.04297151  0.60887715  1
  S  S66  1  0.88341300  0.12747504  0.42989108  1
  S  S67  1  0.15153967  0.20270187  0.25253639  1
  S  S68  1  0.41547868  0.36276167  0.41314674  1
  S  S69  1  0.02077719  0.97486461  0.74972075  1
  S  S70  1  0.36276167  0.41547868  0.91314674  1
  S  S71  1  0.94064594  0.68896397  0.94149784  1
  S  S72  1  0.30856133  0.05821953  0.56163237  1
  S  S73  1  0.22691576  0.77415737  0.75426328  1
  S  S74  1  0.77415737  0.22691576  0.25426328  1
  S  S75  1  0.68896397  0.94064594  0.44149784  1
  S  S76  1  0.05821953  0.30856133  0.06163237  1
  S  S77  1  0.63880322  0.58575651  0.09036797  1
  S  S78  1  0.97486461  0.02077719  0.24972075  1
  S  S79  1  0.58575651  0.63880322  0.59036797  1
  S  S80  1  0.84823992  0.79408456  0.74766379  1
  S  S81  1  0.11935862  0.86756863  0.57273675  1
  S  S82  1  0.40351071  0.95704443  0.39332285  1
  S  S83  1  0.95704443  0.40351071  0.89332285  1
  S  S84  1  0.86756863  0.11935862  0.07273675  1
  S  S85  1  0.66888895  0.31590917  0.04390630  1
  S  S86  1  0.79408456  0.84823992  0.24766379  1
  S  S87  1  0.31590917  0.66888895  0.54390630  1
  S  S88  1  0.40505938  0.24921117  0.14761049  1
  S  S89  1  0.24921117  0.40505938  0.64761049  1
  S  S90  1  0.89754784  0.55214250  0.69914773  1
  S  S91  1  0.55214250  0.89754784  0.19914773  1
  S  S92  1  0.63037598  0.48357570  0.81245623  1
  S  S93  1  0.27739170  0.83068191  0.30526523  1
  S  S94  1  0.83068191  0.27739170  0.80526523  1
  S  S95  1  0.56072199  0.20487632  0.92332210  1
  S  S96  1  0.86227644  0.71205708  0.47011700  1
  S  S97  1  0.28908729  0.13866544  0.02879058  1
  S  S98  1  0.79591860  0.44309811  0.57281159  1
  S  S99  1  0.51576298  0.37027851  0.68937643  1
