# generated using pymatgen
data_Na2BeH4
_symmetry_space_group_name_H-M   'P 1'
_cell_length_a   4.93980793
_cell_length_b   5.00562814
_cell_length_c   6.68633571
_cell_angle_alpha   100.78364298
_cell_angle_beta   90.00000000
_cell_angle_gamma   90.00000000
_symmetry_Int_Tables_number   1
_chemical_formula_structural   Na2BeH4
_chemical_formula_sum   'Na4 Be2 H8'
_cell_volume   162.41231789
_cell_formula_units_Z   2
loop_
 _symmetry_equiv_pos_site_id
 _symmetry_equiv_pos_as_xyz
  1  'x, y, z'
loop_
 _atom_site_type_symbol
 _atom_site_label
 _atom_site_symmetry_multiplicity
 _atom_site_fract_x
 _atom_site_fract_y
 _atom_site_fract_z
 _atom_site_occupancy
  Na  Na0  1  0.25000000  0.72267092  0.02938000  1
  Na  Na1  1  0.75000000  0.27732908  0.97062000  1
  Na  Na2  1  0.75000000  0.25386621  0.46646745  1
  Na  Na3  1  0.25000000  0.74613379  0.53353255  1
  Be  Be4  1  0.25000000  0.27932761  0.21758294  1
  Be  Be5  1  0.75000000  0.72067239  0.78241706  1
  H  H6  1  0.75000000  0.93302143  0.66269859  1
  H  H7  1  0.75000000  0.82293316  0.99773148  1
  H  H8  1  0.51971999  0.54663221  0.73599446  1
  H  H9  1  0.25000000  0.06697857  0.33730141  1
  H  H10  1  0.98028001  0.54663221  0.73599446  1
  H  H11  1  0.01971999  0.45336779  0.26400554  1
  H  H12  1  0.48028001  0.45336779  0.26400554  1
  H  H13  1  0.25000000  0.17706684  0.00226852  1
