# generated using pymatgen
data_CsWF7
_symmetry_space_group_name_H-M   'P 1'
_cell_length_a   10.56848057
_cell_length_b   10.56848057
_cell_length_c   10.56848057
_cell_angle_alpha   90.00000000
_cell_angle_beta   90.00000000
_cell_angle_gamma   90.00000000
_symmetry_Int_Tables_number   1
_chemical_formula_structural   CsWF7
_chemical_formula_sum   'Cs8 W8 F56'
_cell_volume   1180.42299171
_cell_formula_units_Z   8
loop_
 _symmetry_equiv_pos_site_id
 _symmetry_equiv_pos_as_xyz
  1  'x, y, z'
loop_
 _atom_site_type_symbol
 _atom_site_label
 _atom_site_symmetry_multiplicity
 _atom_site_fract_x
 _atom_site_fract_y
 _atom_site_fract_z
 _atom_site_occupancy
  Cs  Cs0  1  0.00000000  -0.00000000  -0.00000000  1
  Cs  Cs1  1  0.00000000  0.50000000  0.50000000  1
  Cs  Cs2  1  0.50000000  -0.00000000  0.50000000  1
  Cs  Cs3  1  0.50000000  0.50000000  -0.00000000  1
  Cs  Cs4  1  0.50000000  -0.00000000  -0.00000000  1
  Cs  Cs5  1  0.50000000  0.50000000  0.50000000  1
  Cs  Cs6  1  0.00000000  -0.00000000  0.50000000  1
  Cs  Cs7  1  0.00000000  0.50000000  -0.00000000  1
  W  W8  1  0.27653235  0.72346765  0.22346765  1
  W  W9  1  0.72346765  0.22346765  0.27653235  1
  W  W10  1  0.22346765  0.27653235  0.72346765  1
  W  W11  1  0.77653235  0.77653235  0.77653235  1
  W  W12  1  0.72346765  0.27653235  0.77653235  1
  W  W13  1  0.27653235  0.77653235  0.72346765  1
  W  W14  1  0.77653235  0.72346765  0.27653235  1
  W  W15  1  0.22346765  0.22346765  0.22346765  1
  F  F16  1  0.17291131  0.82708869  0.32708869  1
  F  F17  1  0.82708869  0.32708869  0.17291131  1
  F  F18  1  0.32708869  0.17291131  0.82708869  1
  F  F19  1  0.67291131  0.67291131  0.67291131  1
  F  F20  1  0.82708869  0.17291131  0.67291131  1
  F  F21  1  0.17291131  0.67291131  0.82708869  1
  F  F22  1  0.67291131  0.82708869  0.17291131  1
  F  F23  1  0.32708869  0.32708869  0.32708869  1
  F  F24  1  0.43323078  0.63652620  0.25585703  1
  F  F25  1  0.56676922  0.13652620  0.24414297  1
  F  F26  1  0.06676922  0.36347380  0.75585703  1
  F  F27  1  0.93323078  0.86347380  0.74414297  1
  F  F28  1  0.25585703  0.43323078  0.63652620  1
  F  F29  1  0.24414297  0.56676922  0.13652620  1
  F  F30  1  0.75585703  0.06676922  0.36347380  1
  F  F31  1  0.74414297  0.93323078  0.86347380  1
  F  F32  1  0.63652620  0.25585703  0.43323078  1
  F  F33  1  0.13652620  0.24414297  0.56676922  1
  F  F34  1  0.36347380  0.75585703  0.06676922  1
  F  F35  1  0.86347380  0.74414297  0.93323078  1
  F  F36  1  0.56676922  0.36347380  0.74414297  1
  F  F37  1  0.43323078  0.86347380  0.75585703  1
  F  F38  1  0.93323078  0.63652620  0.24414297  1
  F  F39  1  0.06676922  0.13652620  0.25585703  1
  F  F40  1  0.74414297  0.56676922  0.36347380  1
  F  F41  1  0.75585703  0.43323078  0.86347380  1
  F  F42  1  0.24414297  0.93323078  0.63652620  1
  F  F43  1  0.25585703  0.06676922  0.13652620  1
  F  F44  1  0.36347380  0.74414297  0.56676922  1
  F  F45  1  0.86347380  0.75585703  0.43323078  1
  F  F46  1  0.63652620  0.24414297  0.93323078  1
  F  F47  1  0.13652620  0.25585703  0.06676922  1
  F  F48  1  0.14121741  0.76883208  0.11575093  1
  F  F49  1  0.85878259  0.26883208  0.38424907  1
  F  F50  1  0.35878259  0.23116792  0.61575093  1
  F  F51  1  0.64121741  0.73116792  0.88424907  1
  F  F52  1  0.11575093  0.14121741  0.76883208  1
  F  F53  1  0.38424907  0.85878259  0.26883208  1
  F  F54  1  0.61575093  0.35878259  0.23116792  1
  F  F55  1  0.88424907  0.64121741  0.73116792  1
  F  F56  1  0.76883208  0.11575093  0.14121741  1
  F  F57  1  0.26883208  0.38424907  0.85878259  1
  F  F58  1  0.23116792  0.61575093  0.35878259  1
  F  F59  1  0.73116792  0.88424907  0.64121741  1
  F  F60  1  0.85878259  0.23116792  0.88424907  1
  F  F61  1  0.14121741  0.73116792  0.61575093  1
  F  F62  1  0.64121741  0.76883208  0.38424907  1
  F  F63  1  0.35878259  0.26883208  0.11575093  1
  F  F64  1  0.88424907  0.85878259  0.23116792  1
  F  F65  1  0.61575093  0.14121741  0.73116792  1
  F  F66  1  0.38424907  0.64121741  0.76883208  1
  F  F67  1  0.11575093  0.35878259  0.26883208  1
  F  F68  1  0.23116792  0.88424907  0.85878259  1
  F  F69  1  0.73116792  0.61575093  0.14121741  1
  F  F70  1  0.76883208  0.38424907  0.64121741  1
  F  F71  1  0.26883208  0.11575093  0.35878259  1
