# generated using pymatgen
data_KBiF6
_symmetry_space_group_name_H-M   'P 1'
_cell_length_a   8.91335937
_cell_length_b   8.91334762
_cell_length_c   8.91336326
_cell_angle_alpha   109.47109590
_cell_angle_beta   109.47135185
_cell_angle_gamma   109.47162797
_symmetry_Int_Tables_number   1
_chemical_formula_structural   KBiF6
_chemical_formula_sum   'K4 Bi4 F24'
_cell_volume   545.12959283
_cell_formula_units_Z   4
loop_
 _symmetry_equiv_pos_site_id
 _symmetry_equiv_pos_as_xyz
  1  'x, y, z'
loop_
 _atom_site_type_symbol
 _atom_site_label
 _atom_site_symmetry_multiplicity
 _atom_site_fract_x
 _atom_site_fract_y
 _atom_site_fract_z
 _atom_site_occupancy
  K  K0  1  0.49999997  0.50000054  0.50000070  1
  K  K1  1  -0.00000031  0.49999961  -0.00000059  1
  K  K2  1  -0.00000013  -0.00000002  0.50000028  1
  K  K3  1  0.50000080  0.00000061  0.00000017  1
  Bi  Bi4  1  -0.00000140  -0.00000077  -0.00000285  1
  Bi  Bi5  1  0.50000111  0.49999848  -0.00000062  1
  Bi  Bi6  1  -0.00000043  0.49999822  0.50000035  1
  Bi  Bi7  1  0.50000114  0.00000133  0.50000076  1
  F  F8  1  0.05232196  0.26190542  0.09035234  1
  F  F9  1  0.23809034  0.29041313  0.82844520  1
  F  F10  1  0.20958556  0.44767855  0.53803242  1
  F  F11  1  0.96196770  0.40964574  0.67155587  1
  F  F12  1  0.29041570  0.82844718  0.23809389  1
  F  F13  1  0.53803208  0.20958565  0.44767794  1
  F  F14  1  0.40964562  0.67155749  0.96196763  1
  F  F15  1  0.09035517  0.05232317  0.26191168  1
  F  F16  1  0.26190412  0.09035211  0.05232182  1
  F  F17  1  0.82844599  0.23809255  0.29041447  1
  F  F18  1  0.44767766  0.53803093  0.20958418  1
  F  F19  1  0.67155851  0.96196794  0.40964405  1
  F  F20  1  0.94767751  0.73809452  0.90964711  1
  F  F21  1  0.76190959  0.70958685  0.17155453  1
  F  F22  1  0.79041385  0.55232126  0.46196757  1
  F  F23  1  0.03803230  0.59035409  0.32844317  1
  F  F24  1  0.70958409  0.17155281  0.76190592  1
  F  F25  1  0.46196791  0.79041413  0.55232246  1
  F  F26  1  0.59035379  0.32844386  0.03803186  1
  F  F27  1  0.90964549  0.94767748  0.73809078  1
  F  F28  1  0.73809616  0.90964779  0.94767805  1
  F  F29  1  0.17155478  0.76190808  0.70958640  1
  F  F30  1  0.55232208  0.46196889  0.79041634  1
  F  F31  1  0.32844128  0.03803237  0.59035612  1
