# generated using pymatgen
data_K2V8O21
_symmetry_space_group_name_H-M   'P 1'
_cell_length_a   7.72510253
_cell_length_b   7.72510253
_cell_length_c   14.81556600
_cell_angle_alpha   88.91381431
_cell_angle_beta   88.91381431
_cell_angle_gamma   26.68250319
_symmetry_Int_Tables_number   1
_chemical_formula_structural   K2V8O21
_chemical_formula_sum   'K2 V8 O21'
_cell_volume   396.94954375
_cell_formula_units_Z   1
loop_
 _symmetry_equiv_pos_site_id
 _symmetry_equiv_pos_as_xyz
  1  'x, y, z'
loop_
 _atom_site_type_symbol
 _atom_site_label
 _atom_site_symmetry_multiplicity
 _atom_site_fract_x
 _atom_site_fract_y
 _atom_site_fract_z
 _atom_site_occupancy
  K  K0  1  0.52702123  0.52702123  0.68810856  1
  K  K1  1  0.47297877  0.47297877  0.31189144  1
  V  V2  1  0.68783236  0.68783236  0.92819348  1
  V  V3  1  0.09018644  0.09018644  0.07634462  1
  V  V4  1  0.83185123  0.83185123  0.52102099  1
  V  V5  1  0.18855065  0.18855065  0.27112150  1
  V  V6  1  0.90981356  0.90981356  0.92365538  1
  V  V7  1  0.16814877  0.16814877  0.47897901  1
  V  V8  1  0.31216764  0.31216764  0.07180652  1
  V  V9  1  0.81144935  0.81144935  0.72887850  1
  O  O10  1  0.78671562  0.78671562  0.85885994  1
  O  O11  1  0.29127308  0.29127308  0.52773740  1
  O  O12  1  0.38286555  0.38286555  0.95043264  1
  O  O13  1  0.95597104  0.95597104  0.82364252  1
  O  O14  1  0.04402896  0.04402896  0.17635748  1
  O  O15  1  0.88826478  0.88826478  0.62275813  1
  O  O16  1  0.28556792  0.28556792  0.31472542  1
  O  O17  1  0.33844432  0.33844432  0.73933006  1
  O  O18  1  0.90696079  0.90696079  0.44159431  1
  O  O19  1  0.19409896  0.19409896  0.96646830  1
  O  O20  1  0.38954229  0.38954229  0.14432222  1
  O  O21  1  0.11173522  0.11173522  0.37724187  1
  O  O22  1  0.70872692  0.70872692  0.47226260  1
  O  O23  1  0.71443208  0.71443208  0.68527458  1
  O  O24  1  -0.00000000  -0.00000000  -0.00000000  1
  O  O25  1  0.61713445  0.61713445  0.04956736  1
  O  O26  1  0.21328438  0.21328438  0.14114006  1
  O  O27  1  0.66155568  0.66155568  0.26066994  1
  O  O28  1  0.09303921  0.09303921  0.55840569  1
  O  O29  1  0.61045771  0.61045771  0.85567778  1
  O  O30  1  0.80590104  0.80590104  0.03353170  1
