# generated using pymatgen
data_CaTaAlO5
_symmetry_space_group_name_H-M   'P 1'
_cell_length_a   6.65321483
_cell_length_b   7.33711600
_cell_length_c   8.94364660
_cell_angle_alpha   90.00000000
_cell_angle_beta   90.00000000
_cell_angle_gamma   113.93425007
_symmetry_Int_Tables_number   1
_chemical_formula_structural   CaTaAlO5
_chemical_formula_sum   'Ca4 Ta4 Al4 O20'
_cell_volume   399.04628611
_cell_formula_units_Z   4
loop_
 _symmetry_equiv_pos_site_id
 _symmetry_equiv_pos_as_xyz
  1  'x, y, z'
loop_
 _atom_site_type_symbol
 _atom_site_label
 _atom_site_symmetry_multiplicity
 _atom_site_fract_x
 _atom_site_fract_y
 _atom_site_fract_z
 _atom_site_occupancy
  Ca  Ca0  1  0.00432021  0.72044986  0.33509213  1
  Ca  Ca1  1  0.50432021  0.22044986  0.16490787  1
  Ca  Ca2  1  0.99567979  0.27955014  0.66490787  1
  Ca  Ca3  1  0.49567979  0.77955014  0.83509213  1
  Ta  Ta4  1  0.50000000  0.50000000  0.50000000  1
  Ta  Ta5  1  0.50000000  0.00000000  0.50000000  1
  Ta  Ta6  1  -0.00000000  0.50000000  -0.00000000  1
  Ta  Ta7  1  -0.00000000  0.00000000  -0.00000000  1
  Al  Al8  1  0.49310953  0.25035138  0.81546318  1
  Al  Al9  1  0.00689147  0.24964862  0.31546318  1
  Al  Al10  1  0.99310853  0.75035138  0.68453682  1
  Al  Al11  1  0.50689147  0.74964862  0.18453682  1
  O  O12  1  0.11313980  0.11731748  0.20003465  1
  O  O13  1  0.19214997  0.42692321  0.43672907  1
  O  O14  1  0.99157855  0.74707156  0.07597655  1
  O  O15  1  0.80785003  0.57307679  0.56327093  1
  O  O16  1  0.61313980  0.61731748  0.29996535  1
  O  O17  1  0.10118876  0.61431088  0.79697401  1
  O  O18  1  0.50842145  0.75292844  0.57597655  1
  O  O19  1  0.39881124  0.88568912  0.29697401  1
  O  O20  1  0.89881124  0.38568912  0.20302599  1
  O  O21  1  0.81125183  0.09535645  0.44182497  1
  O  O22  1  0.31125183  0.59535645  0.05817503  1
  O  O23  1  0.30785003  0.07307679  0.93672907  1
  O  O24  1  0.69214997  0.92692321  0.06327093  1
  O  O25  1  0.49157855  0.24707156  0.42402345  1
  O  O26  1  0.68874817  0.40464355  0.94182497  1
  O  O27  1  0.18874817  0.90464355  0.55817503  1
  O  O28  1  0.60118876  0.11431088  0.70302599  1
  O  O29  1  0.38686020  0.38268252  0.70003465  1
  O  O30  1  0.00842145  0.25292844  0.92402345  1
  O  O31  1  0.88686020  0.88268252  0.79996535  1
