# generated using pymatgen
data_Cs3P7
_symmetry_space_group_name_H-M   'P 1'
_cell_length_a   9.16169133
_cell_length_b   9.16169133
_cell_length_c   16.84814048
_cell_angle_alpha   90.00000000
_cell_angle_beta   90.00000000
_cell_angle_gamma   90.00000000
_symmetry_Int_Tables_number   1
_chemical_formula_structural   Cs3P7
_chemical_formula_sum   'Cs12 P28'
_cell_volume   1414.17542648
_cell_formula_units_Z   4
loop_
 _symmetry_equiv_pos_site_id
 _symmetry_equiv_pos_as_xyz
  1  'x, y, z'
loop_
 _atom_site_type_symbol
 _atom_site_label
 _atom_site_symmetry_multiplicity
 _atom_site_fract_x
 _atom_site_fract_y
 _atom_site_fract_z
 _atom_site_occupancy
  Cs  Cs0  1  0.74290033  0.37874664  0.00034377  1
  Cs  Cs1  1  0.62125336  0.74290033  0.25034377  1
  Cs  Cs2  1  0.37874664  0.25709967  0.75034377  1
  Cs  Cs3  1  0.25709967  0.62125336  0.50034377  1
  Cs  Cs4  1  0.41393516  0.73378898  0.83755764  1
  Cs  Cs5  1  0.26621102  0.41393516  0.08755764  1
  Cs  Cs6  1  0.73378898  0.58606484  0.58755764  1
  Cs  Cs7  1  0.58606484  0.26621102  0.33755764  1
  Cs  Cs8  1  0.01929635  0.83020912  0.99795717  1
  Cs  Cs9  1  0.16979088  0.01929635  0.24795717  1
  Cs  Cs10  1  0.83020912  0.98070365  0.74795717  1
  Cs  Cs11  1  0.98070365  0.16979088  0.49795717  1
  P  P12  1  0.78902506  0.60286247  0.81063649  1
  P  P13  1  0.39713753  0.78902506  0.06063649  1
  P  P14  1  0.60286247  0.21097494  0.56063649  1
  P  P15  1  0.21097494  0.39713753  0.31063649  1
  P  P16  1  0.44231146  0.09236943  0.94451431  1
  P  P17  1  0.90763057  0.44231146  0.19451431  1
  P  P18  1  0.09236943  0.55768854  0.69451431  1
  P  P19  1  0.55768854  0.90763057  0.44451431  1
  P  P20  1  0.10509082  0.47960976  0.89037746  1
  P  P21  1  0.52039024  0.10509082  0.14037746  1
  P  P22  1  0.47960976  0.89490918  0.64037746  1
  P  P23  1  0.89490918  0.52039024  0.39037746  1
  P  P24  1  0.35454164  0.02339623  0.05853933  1
  P  P25  1  0.97660377  0.35454164  0.30853933  1
  P  P26  1  0.02339623  0.64545836  0.80853933  1
  P  P27  1  0.64545836  0.97660377  0.55853933  1
  P  P28  1  0.62240771  0.79453337  0.03215507  1
  P  P29  1  0.20546663  0.62240771  0.28215607  1
  P  P30  1  0.79453337  0.37759229  0.78215507  1
  P  P31  1  0.37759229  0.20546663  0.53215507  1
  P  P32  1  0.99613762  0.34742330  0.70507407  1
  P  P33  1  0.65257670  0.99613762  0.95507407  1
  P  P34  1  0.34742330  0.00386338  0.45507407  1
  P  P35  1  0.00386338  0.65257670  0.20507407  1
  P  P36  1  0.00658372  0.29339478  0.83804269  1
  P  P37  1  0.70660522  0.00658372  0.08804269  1
  P  P38  1  0.29339478  0.99341628  0.58804269  1
  P  P39  1  0.99341628  0.70660522  0.33804269  1
