# generated using pymatgen
data_CaCrF6
_symmetry_space_group_name_H-M   'P 1'
_cell_length_a   5.62734267
_cell_length_b   5.63348116
_cell_length_c   5.64093538
_cell_angle_alpha   55.45328682
_cell_angle_beta   55.45487642
_cell_angle_gamma   55.37584750
_symmetry_Int_Tables_number   1
_chemical_formula_structural   CaCrF6
_chemical_formula_sum   'Ca1 Cr1 F6'
_cell_volume   113.02192671
_cell_formula_units_Z   1
loop_
 _symmetry_equiv_pos_site_id
 _symmetry_equiv_pos_as_xyz
  1  'x, y, z'
loop_
 _atom_site_type_symbol
 _atom_site_label
 _atom_site_symmetry_multiplicity
 _atom_site_fract_x
 _atom_site_fract_y
 _atom_site_fract_z
 _atom_site_occupancy
  Ca  Ca0  1  0.50000000  0.50000000  0.50000000  1
  Cr  Cr1  1  -0.00000000  0.00000000  0.00000000  1
  F  F2  1  0.35285796  0.08538102  0.78601536  1
  F  F3  1  0.08618159  0.78486770  0.35301792  1
  F  F4  1  0.21573788  0.64731901  0.91428686  1
  F  F5  1  0.91381841  0.21513230  0.64698208  1
  F  F6  1  0.64714204  0.91461898  0.21398464  1
  F  F7  1  0.78426212  0.35268099  0.08571314  1
