# generated using pymatgen
data_Ga2BiSe4
_symmetry_space_group_name_H-M   'P 1'
_cell_length_a   7.84300707
_cell_length_b   7.84300707
_cell_length_c   12.64001628
_cell_angle_alpha   90.00000000
_cell_angle_beta   90.00000000
_cell_angle_gamma   90.00000000
_symmetry_Int_Tables_number   1
_chemical_formula_structural   Ga2BiSe4
_chemical_formula_sum   'Ga8 Bi4 Se16'
_cell_volume   777.52228656
_cell_formula_units_Z   4
loop_
 _symmetry_equiv_pos_site_id
 _symmetry_equiv_pos_as_xyz
  1  'x, y, z'
loop_
 _atom_site_type_symbol
 _atom_site_label
 _atom_site_symmetry_multiplicity
 _atom_site_fract_x
 _atom_site_fract_y
 _atom_site_fract_z
 _atom_site_occupancy
  Ga  Ga0  1  0.50000000  -0.00000000  0.75000000  1
  Ga  Ga1  1  0.00000000  0.50000000  0.75000000  1
  Ga  Ga2  1  0.00000000  0.50000000  0.00000000  1
  Ga  Ga3  1  0.00000000  0.50000000  0.25000000  1
  Ga  Ga4  1  0.50000000  -0.00000000  0.50000000  1
  Ga  Ga5  1  0.50000000  -0.00000000  0.25000000  1
  Ga  Ga6  1  0.00000000  0.50000000  0.50000000  1
  Ga  Ga7  1  0.50000000  -0.00000000  0.00000000  1
  Bi  Bi8  1  0.00000000  -0.00000000  0.12493817  1
  Bi  Bi9  1  0.00000000  -0.00000000  0.87506183  1
  Bi  Bi10  1  0.50000000  0.50000000  0.37506183  1
  Bi  Bi11  1  0.50000000  0.50000000  0.62493817  1
  Se  Se12  1  0.66152511  0.82948299  0.87539836  1
  Se  Se13  1  0.16152511  0.32948299  0.62460164  1
  Se  Se14  1  0.83847489  0.67051701  0.62460164  1
  Se  Se15  1  0.16152511  0.67051701  0.37539836  1
  Se  Se16  1  0.67051701  0.16152511  0.62460164  1
  Se  Se17  1  0.82948299  0.33847489  0.87539836  1
  Se  Se18  1  0.67051701  0.83847489  0.37539836  1
  Se  Se19  1  0.66152511  0.17051701  0.12460164  1
  Se  Se20  1  0.17051701  0.33847489  0.12460164  1
  Se  Se21  1  0.32948299  0.83847489  0.62460164  1
  Se  Se22  1  0.17051701  0.66152511  0.87539836  1
  Se  Se23  1  0.83847489  0.32948299  0.37539836  1
  Se  Se24  1  0.82948299  0.66152511  0.12460164  1
  Se  Se25  1  0.33847489  0.17051701  0.87539836  1
  Se  Se26  1  0.32948299  0.16152511  0.37539836  1
  Se  Se27  1  0.33847489  0.82948299  0.12460164  1
