# generated using pymatgen
data_CdI2
_symmetry_space_group_name_H-M   'P 1'
_cell_length_a   4.28790889
_cell_length_b   4.28791074
_cell_length_c   43.38731147
_cell_angle_alpha   90.00000000
_cell_angle_beta   90.00000000
_cell_angle_gamma   120.00000194
_symmetry_Int_Tables_number   1
_chemical_formula_structural   CdI2
_chemical_formula_sum   'Cd6 I12'
_cell_volume   690.85140970
_cell_formula_units_Z   6
loop_
 _symmetry_equiv_pos_site_id
 _symmetry_equiv_pos_as_xyz
  1  'x, y, z'
loop_
 _atom_site_type_symbol
 _atom_site_label
 _atom_site_symmetry_multiplicity
 _atom_site_fract_x
 _atom_site_fract_y
 _atom_site_fract_z
 _atom_site_occupancy
  Cd  Cd0  1  0.00000000  0.00000000  0.54264200  1
  Cd  Cd1  1  0.66666700  0.33333300  0.04184373  1
  Cd  Cd2  1  -0.00000000  -0.00000000  0.70848755  1
  Cd  Cd3  1  0.66666700  0.33333300  0.37564901  1
  Cd  Cd4  1  -0.00000000  -0.00000000  0.20852852  1
  Cd  Cd5  1  -0.00000000  0.00000000  0.87448770  1
  I  I6  1  0.33333300  0.66666700  0.08151387  1
  I  I7  1  0.33333300  0.66666700  0.41512613  1
  I  I8  1  0.66666700  0.33333300  0.66882327  1
  I  I9  1  0.33333300  0.66666700  0.74807736  1
  I  I10  1  0.33333300  0.66666700  0.91415681  1
  I  I11  1  -0.00000000  -0.00000000  0.33617637  1
  I  I12  1  -0.00000000  -0.00000000  0.00215175  1
  I  I13  1  0.66666700  0.33333300  0.83485788  1
  I  I14  1  0.66666700  0.33333300  0.50303644  1
  I  I15  1  0.33333300  0.66666700  0.58238165  1
  I  I16  1  0.33333300  0.66666700  0.24820140  1
  I  I17  1  0.66666700  0.33333300  0.16885656  1
