# generated using pymatgen
data_BS2
_symmetry_space_group_name_H-M   'P 1'
_cell_length_a   4.20685091
_cell_length_b   12.32236480
_cell_length_c   21.56104428
_cell_angle_alpha   104.65738806
_cell_angle_beta   90.00000000
_cell_angle_gamma   90.00000000
_symmetry_Int_Tables_number   1
_chemical_formula_structural   BS2
_chemical_formula_sum   'B16 S32'
_cell_volume   1081.31515712
_cell_formula_units_Z   16
loop_
 _symmetry_equiv_pos_site_id
 _symmetry_equiv_pos_as_xyz
  1  'x, y, z'
loop_
 _atom_site_type_symbol
 _atom_site_label
 _atom_site_symmetry_multiplicity
 _atom_site_fract_x
 _atom_site_fract_y
 _atom_site_fract_z
 _atom_site_occupancy
  B  B0  1  0.62963568  0.21979446  0.13336317  1
  B  B1  1  0.12963568  0.28020554  0.36663683  1
  B  B2  1  0.37036432  0.78020554  0.86663683  1
  B  B3  1  0.87036432  0.71979446  0.63336317  1
  B  B4  1  0.81204739  0.30755223  0.03380115  1
  B  B5  1  0.31204739  0.19244777  0.46619885  1
  B  B6  1  0.18795261  0.69244777  0.96619885  1
  B  B7  1  0.68795261  0.80755223  0.53380115  1
  B  B8  1  0.88382025  0.78492871  0.09563657  1
  B  B9  1  0.38382025  0.71507129  0.40436343  1
  B  B10  1  0.11617975  0.21507129  0.90436343  1
  B  B11  1  0.61617975  0.28492871  0.59563657  1
  B  B12  1  0.65795984  0.99164029  0.16049429  1
  B  B13  1  0.15795984  0.50835971  0.33950571  1
  B  B14  1  0.34204016  0.00835971  0.83950571  1
  B  B15  1  0.84204016  0.49164029  0.66049429  1
  S  S16  1  0.51832037  0.36429600  0.16384637  1
  S  S17  1  0.01832037  0.13570400  0.33615363  1
  S  S18  1  0.48167963  0.63570400  0.83615363  1
  S  S19  1  0.98167963  0.86429600  0.66384637  1
  S  S20  1  0.65941932  0.43045637  0.08964599  1
  S  S21  1  0.15941932  0.06954363  0.41035401  1
  S  S22  1  0.34058068  0.56954363  0.91035401  1
  S  S23  1  0.84058068  0.93045637  0.58964599  1
  S  S24  1  0.80897099  0.17481958  0.05499501  1
  S  S25  1  0.30897099  0.32518042  0.44500499  1
  S  S26  1  0.19102901  0.82518042  0.94500499  1
  S  S27  1  0.69102901  0.67481958  0.55499501  1
  S  S28  1  0.94618598  0.33724950  0.95972270  1
  S  S29  1  0.44618598  0.16275050  0.54027730  1
  S  S30  1  0.05381402  0.66275050  0.04027730  1
  S  S31  1  0.55381402  0.83724950  0.45972270  1
  S  S32  1  0.74688789  0.75565987  0.16883981  1
  S  S33  1  0.24688789  0.74434013  0.33116019  1
  S  S34  1  0.25311211  0.24434013  0.83116019  1
  S  S35  1  0.75311211  0.25565987  0.66883981  1
  S  S36  1  0.57638363  0.91068608  0.21729871  1
  S  S37  1  0.07638363  0.58931392  0.28270129  1
  S  S38  1  0.42361637  0.08931392  0.78270129  1
  S  S39  1  0.92361637  0.41068608  0.71729871  1
  S  S40  1  0.84149079  0.92472913  0.08485370  1
  S  S41  1  0.34149079  0.57527087  0.41514630  1
  S  S42  1  0.15850921  0.07527087  0.91514630  1
  S  S43  1  0.65850921  0.42472913  0.58485370  1
  S  S44  1  0.53550021  0.13683171  0.18956147  1
  S  S45  1  0.03550021  0.36316829  0.31043853  1
  S  S46  1  0.46449979  0.86316829  0.81043853  1
  S  S47  1  0.96449979  0.63683171  0.68956147  1
