# generated using pymatgen
data_CdI2
_symmetry_space_group_name_H-M   'P 1'
_cell_length_a   4.28643668
_cell_length_b   4.28643576
_cell_length_c   65.35929078
_cell_angle_alpha   90.00000000
_cell_angle_beta   90.00000000
_cell_angle_gamma   119.99999106
_symmetry_Int_Tables_number   1
_chemical_formula_structural   CdI2
_chemical_formula_sum   'Cd9 I18'
_cell_volume   1039.99376100
_cell_formula_units_Z   9
loop_
 _symmetry_equiv_pos_site_id
 _symmetry_equiv_pos_as_xyz
  1  'x, y, z'
loop_
 _atom_site_type_symbol
 _atom_site_label
 _atom_site_symmetry_multiplicity
 _atom_site_fract_x
 _atom_site_fract_y
 _atom_site_fract_z
 _atom_site_occupancy
  Cd  Cd0  1  0.00000000  0.00000000  0.80534622  1
  Cd  Cd1  1  0.66666700  0.33333300  0.58369407  1
  Cd  Cd2  1  -0.00000000  -0.00000000  0.47261089  1
  Cd  Cd3  1  -0.00000000  0.00000000  0.91666004  1
  Cd  Cd4  1  -0.00000000  -0.00000000  0.69463759  1
  Cd  Cd5  1  0.66666700  0.33333300  0.02766853  1
  Cd  Cd6  1  -0.00000000  -0.00000000  0.13865641  1
  Cd  Cd7  1  -0.00000000  -0.00000000  0.36132889  1
  Cd  Cd8  1  0.66666700  0.33333300  0.24942685  1
  I  I9  1  0.66666700  0.33333300  0.33503949  1
  I  I10  1  0.33333300  0.66666700  0.72097514  1
  I  I11  1  0.00000000  0.00000000  0.55728257  1
  I  I12  1  0.00000000  0.00000000  0.22308639  1
  I  I13  1  0.33333300  0.66666700  0.27567056  1
  I  I14  1  0.33333300  0.66666700  0.05402211  1
  I  I15  1  0.33333300  0.66666700  0.61005088  1
  I  I16  1  0.66666700  0.33333300  0.89040017  1
  I  I17  1  0.33333300  0.66666700  0.94297314  1
  I  I18  1  0.66666700  0.33333300  0.11236976  1
  I  I19  1  -0.00000000  -0.00000000  0.00131368  1
  I  I20  1  0.66666700  0.33333300  0.44629888  1
  I  I21  1  0.33333300  0.66666700  0.16495614  1
  I  I22  1  0.66666700  0.33333300  0.77902330  1
  I  I23  1  0.33333300  0.66666700  0.38763413  1
  I  I24  1  0.33333300  0.66666700  0.83167522  1
  I  I25  1  0.66666700  0.33333300  0.66831158  1
  I  I26  1  0.33333300  0.66666700  0.49888933  1
