# generated using pymatgen
data_KCrF3
_symmetry_space_group_name_H-M   'P 1'
_cell_length_a   6.02100749
_cell_length_b   6.02100749
_cell_length_c   5.79612869
_cell_angle_alpha   59.26580277
_cell_angle_beta   59.26580277
_cell_angle_gamma   90.95246281
_symmetry_Int_Tables_number   1
_chemical_formula_structural   KCrF3
_chemical_formula_sum   'K2 Cr2 F6'
_cell_volume   143.85218426
_cell_formula_units_Z   2
loop_
 _symmetry_equiv_pos_site_id
 _symmetry_equiv_pos_as_xyz
  1  'x, y, z'
loop_
 _atom_site_type_symbol
 _atom_site_label
 _atom_site_symmetry_multiplicity
 _atom_site_fract_x
 _atom_site_fract_y
 _atom_site_fract_z
 _atom_site_occupancy
  K  K0  1  0.75255251  0.24744749  -0.00000000  1
  K  K1  1  0.24744749  0.75255251  -0.00000000  1
  Cr  Cr2  1  0.50000000  0.50000000  0.50000000  1
  Cr  Cr3  1  -0.00000000  -0.00000000  0.50000000  1
  F  F4  1  0.76964467  0.23035533  0.50000000  1
  F  F5  1  0.69274031  0.69274031  0.57636703  1
  F  F6  1  0.30725969  0.30725969  0.42363297  1
  F  F7  1  0.79030044  0.79030044  0.00113100  1
  F  F8  1  0.23035533  0.76964467  0.50000000  1
  F  F9  1  0.20969956  0.20969956  -0.00113100  1
