# generated using pymatgen
data_Ba2TiO4
_symmetry_space_group_name_H-M   'P 1'
_cell_length_a   6.13491891
_cell_length_b   10.58913954
_cell_length_c   23.09852106
_cell_angle_alpha   90.00000000
_cell_angle_beta   90.00000000
_cell_angle_gamma   90.00000000
_symmetry_Int_Tables_number   1
_chemical_formula_structural   Ba2TiO4
_chemical_formula_sum   'Ba24 Ti12 O48'
_cell_volume   1500.56105941
_cell_formula_units_Z   12
loop_
 _symmetry_equiv_pos_site_id
 _symmetry_equiv_pos_as_xyz
  1  'x, y, z'
loop_
 _atom_site_type_symbol
 _atom_site_label
 _atom_site_symmetry_multiplicity
 _atom_site_fract_x
 _atom_site_fract_y
 _atom_site_fract_z
 _atom_site_occupancy
  Ba  Ba0  1  0.23487283  0.57770496  0.88929397  1
  Ba  Ba1  1  0.26426696  0.20069455  0.83530451  1
  Ba  Ba2  1  0.76426696  0.79930545  0.16469549  1
  Ba  Ba3  1  0.71841589  0.42676043  0.44564680  1
  Ba  Ba4  1  0.76043972  0.07447456  0.28039999  1
  Ba  Ba5  1  0.71219372  0.79910645  0.49773474  1
  Ba  Ba6  1  0.23487283  0.92229504  0.38929397  1
  Ba  Ba7  1  0.74693297  0.80136153  0.83040779  1
  Ba  Ba8  1  0.71219372  0.70089355  0.99773474  1
  Ba  Ba9  1  0.73487283  0.07770496  0.61070603  1
  Ba  Ba10  1  0.74693297  0.69863847  0.33040779  1
  Ba  Ba11  1  0.26426696  0.29930545  0.33530451  1
  Ba  Ba12  1  0.21841589  0.57323957  0.55435320  1
  Ba  Ba13  1  0.76043972  0.42552544  0.78039999  1
  Ba  Ba14  1  0.76426696  0.70069455  0.66469549  1
  Ba  Ba15  1  0.73487283  0.42229504  0.11070603  1
  Ba  Ba16  1  0.21219372  0.20089355  0.50226526  1
  Ba  Ba17  1  0.71841589  0.07323957  0.94564680  1
  Ba  Ba18  1  0.24693297  0.19863947  0.16959221  1
  Ba  Ba19  1  0.24693297  0.30136053  0.66959221  1
  Ba  Ba20  1  0.21841589  0.92676043  0.05435320  1
  Ba  Ba21  1  0.21219372  0.29910645  0.00226526  1
  Ba  Ba22  1  0.26043972  0.57447456  0.21960001  1
  Ba  Ba23  1  0.26043972  0.92552544  0.71960001  1
  Ti  Ti24  1  0.24367681  0.58555791  0.07228719  1
  Ti  Ti25  1  0.72085363  0.08594759  0.09502697  1
  Ti  Ti26  1  0.25138428  0.91343554  0.24009120  1
  Ti  Ti27  1  0.74367681  0.41444209  0.92771281  1
  Ti  Ti28  1  0.24367681  0.91444209  0.57228719  1
  Ti  Ti29  1  0.22085363  0.91405241  0.90497303  1
  Ti  Ti30  1  0.22085363  0.58594759  0.40497303  1
  Ti  Ti31  1  0.74367681  0.08555791  0.42771281  1
  Ti  Ti32  1  0.72085363  0.41405241  0.59502697  1
  Ti  Ti33  1  0.25138428  0.58656446  0.74009120  1
  Ti  Ti34  1  0.75138428  0.41343554  0.25990880  1
  Ti  Ti35  1  0.75138428  0.08656446  0.75990880  1
  O  O36  1  0.48791125  0.64753456  0.42496264  1
  O  O37  1  0.96510495  0.20363207  0.74842950  1
  O  O38  1  0.46510495  0.79636793  0.25157050  1
  O  O39  1  0.52806805  0.20281246  0.41960925  1
  O  O40  1  0.17467925  0.06120821  0.61024999  1
  O  O41  1  0.17996406  0.43673955  0.44431591  1
  O  O42  1  0.18941391  0.56156557  0.66456962  1
  O  O43  1  0.31940097  0.55408797  0.99797441  1
  O  O44  1  0.81940097  0.44591203  0.00202559  1
  O  O45  1  0.99736382  0.64059787  0.77274933  1
  O  O46  1  0.31690552  0.06231543  0.27711251  1
  O  O47  1  0.81940097  0.05408797  0.50202559  1
  O  O48  1  0.17467925  0.43879179  0.11024999  1
  O  O49  1  0.99359785  0.14268841  0.39351359  1
  O  O50  1  0.01338050  0.69900245  0.42674067  1
  O  O51  1  0.68887307  0.44334610  0.67133742  1
  O  O52  1  0.46510495  0.70363207  0.75157050  1
  O  O53  1  0.99736382  0.85940213  0.27274933  1
  O  O54  1  0.67996406  0.93673955  0.05568409  1
  O  O55  1  0.96510495  0.29636793  0.24842950  1
  O  O56  1  0.18941391  0.93843443  0.16456962  1
  O  O57  1  0.52806805  0.29718754  0.91960925  1
  O  O58  1  0.81690552  0.93768457  0.72288749  1
  O  O59  1  0.98791125  0.35246544  0.57503736  1
  O  O60  1  0.68887307  0.05665390  0.17133742  1
  O  O61  1  0.49736382  0.35940213  0.22725067  1
  O  O62  1  0.18887307  0.55665390  0.32866258  1
  O  O63  1  0.67467925  0.93879179  0.38975001  1
  O  O64  1  0.49359785  0.64268841  0.10648641  1
  O  O65  1  0.31690552  0.43768457  0.77711251  1
  O  O66  1  0.02806805  0.70281246  0.08039075  1
  O  O67  1  0.67467925  0.56120821  0.88975001  1
  O  O68  1  0.17996406  0.06326045  0.94431591  1
  O  O69  1  0.02806805  0.79718754  0.58039075  1
  O  O70  1  0.18887307  0.94334610  0.82866258  1
  O  O71  1  0.68941391  0.06156557  0.83543038  1
  O  O72  1  0.68941391  0.43843443  0.33543038  1
  O  O73  1  0.67996406  0.56326045  0.55568409  1
  O  O74  1  0.98791125  0.14753456  0.07503736  1
  O  O75  1  0.31940097  0.94591203  0.49797441  1
  O  O76  1  0.99359785  0.35731159  0.89351359  1
  O  O77  1  0.01338050  0.80099755  0.92674067  1
  O  O78  1  0.81690552  0.56231543  0.22288749  1
  O  O79  1  0.49736382  0.14059787  0.72725067  1
  O  O80  1  0.49359785  0.85731159  0.60648641  1
  O  O81  1  0.48791125  0.85246544  0.92496264  1
  O  O82  1  0.51338050  0.19900245  0.07325933  1
  O  O83  1  0.51338050  0.30099755  0.57325933  1
