# generated using pymatgen
data_K2Ag6Sn3S10
_symmetry_space_group_name_H-M   'P 1'
_cell_length_a   6.37279246
_cell_length_b   13.27846333
_cell_length_c   24.54836912
_cell_angle_alpha   90.00000000
_cell_angle_beta   90.00000000
_cell_angle_gamma   90.00000000
_symmetry_Int_Tables_number   1
_chemical_formula_structural   K2Ag6Sn3S10
_chemical_formula_sum   'K8 Ag24 Sn12 S40'
_cell_volume   2077.30486728
_cell_formula_units_Z   4
loop_
 _symmetry_equiv_pos_site_id
 _symmetry_equiv_pos_as_xyz
  1  'x, y, z'
loop_
 _atom_site_type_symbol
 _atom_site_label
 _atom_site_symmetry_multiplicity
 _atom_site_fract_x
 _atom_site_fract_y
 _atom_site_fract_z
 _atom_site_occupancy
  K  K0  1  0.07694755  0.21710719  0.82115602  1
  K  K1  1  0.92305245  0.71710719  0.82115602  1
  K  K2  1  0.42305245  0.78289281  0.32115602  1
  K  K3  1  0.07694755  0.28289281  0.17884398  1
  K  K4  1  0.42305245  0.71710719  0.67884398  1
  K  K5  1  0.57694755  0.21710719  0.67884398  1
  K  K6  1  0.92305245  0.78289281  0.17884398  1
  K  K7  1  0.57694755  0.28289281  0.32115602  1
  Ag  Ag8  1  0.41402386  0.58120351  0.04055623  1
  Ag  Ag9  1  0.55921294  0.28638223  0.09907911  1
  Ag  Ag10  1  0.49948316  0.52925605  0.40858936  1
  Ag  Ag11  1  0.05921294  0.28638223  0.40092089  1
  Ag  Ag12  1  0.94078706  0.78638223  0.40092089  1
  Ag  Ag13  1  0.49948316  0.97074395  0.59141064  1
  Ag  Ag14  1  0.99948316  0.52925605  0.09141064  1
  Ag  Ag15  1  0.58597614  0.41879649  0.95944377  1
  Ag  Ag16  1  0.55921294  0.21361777  0.90092089  1
  Ag  Ag17  1  0.58597614  0.08120351  0.04055623  1
  Ag  Ag18  1  0.44078706  0.78638223  0.09907911  1
  Ag  Ag19  1  0.91402386  0.58120351  0.45944377  1
  Ag  Ag20  1  0.91402386  0.91879649  0.54055623  1
  Ag  Ag21  1  0.08597614  0.08120351  0.45944377  1
  Ag  Ag22  1  0.50051684  0.47074395  0.59141064  1
  Ag  Ag23  1  0.00051684  0.47074395  0.90858936  1
  Ag  Ag24  1  0.99948316  0.97074395  0.90858936  1
  Ag  Ag25  1  0.41402386  0.91879649  0.95944377  1
  Ag  Ag26  1  0.00051684  0.02925605  0.09141064  1
  Ag  Ag27  1  0.94078706  0.71361777  0.59907911  1
  Ag  Ag28  1  0.50051684  0.02925605  0.40858936  1
  Ag  Ag29  1  0.08597614  0.41879649  0.54055623  1
  Ag  Ag30  1  0.44078706  0.71361777  0.90092089  1
  Ag  Ag31  1  0.05921294  0.21361777  0.59907911  1
  Sn  Sn32  1  0.54373696  0.44372840  0.79900687  1
  Sn  Sn33  1  0.46881599  0.75000000  0.50000000  1
  Sn  Sn34  1  0.04373696  0.05627160  0.29900687  1
  Sn  Sn35  1  0.04373696  0.44372840  0.70099313  1
  Sn  Sn36  1  0.03118401  0.25000000  0.00000000  1
  Sn  Sn37  1  0.95626304  0.94372840  0.70099313  1
  Sn  Sn38  1  0.45626304  0.94372840  0.79900687  1
  Sn  Sn39  1  0.54373696  0.05627160  0.20099313  1
  Sn  Sn40  1  0.45626304  0.55627160  0.20099313  1
  Sn  Sn41  1  0.96881599  0.75000000  0.00000000  1
  Sn  Sn42  1  0.53118401  0.25000000  0.50000000  1
  Sn  Sn43  1  0.95626304  0.55627160  0.29900687  1
  S  S44  1  0.30737043  0.12209199  0.54004003  1
  S  S45  1  0.65893564  0.96366873  0.12211613  1
  S  S46  1  0.19262957  0.62209199  0.95995997  1
  S  S47  1  0.65893564  0.53633127  0.87788387  1
  S  S48  1  0.40960835  0.76899796  0.80405053  1
  S  S49  1  0.34106436  0.46366873  0.12211613  1
  S  S50  1  0.25785971  0.66964302  0.43144549  1
  S  S51  1  0.32025046  0.00198982  0.71062306  1
  S  S52  1  0.59039165  0.23100204  0.19594947  1
  S  S53  1  0.74214029  0.33035698  0.56855451  1
  S  S54  1  0.80737043  0.12209199  0.95995997  1
  S  S55  1  0.90960835  0.73100204  0.30405053  1
  S  S56  1  0.19262957  0.87790801  0.04004003  1
  S  S57  1  0.84106436  0.46366873  0.37788387  1
  S  S58  1  0.59039165  0.26899796  0.80405053  1
  S  S59  1  0.24214029  0.16964302  0.06855451  1
  S  S60  1  0.30737043  0.37790801  0.45995997  1
  S  S61  1  0.09039165  0.26899796  0.69594947  1
  S  S62  1  0.34106436  0.03633127  0.87788387  1
  S  S63  1  0.84106436  0.03633127  0.62211613  1
  S  S64  1  0.75785971  0.66964302  0.06855451  1
  S  S65  1  0.69262957  0.87790801  0.45995997  1
  S  S66  1  0.15893564  0.53633127  0.62211613  1
  S  S67  1  0.74214029  0.16964302  0.43144549  1
  S  S68  1  0.90960835  0.76899796  0.69594947  1
  S  S69  1  0.25785971  0.83035698  0.56855451  1
  S  S70  1  0.67974954  0.50198982  0.71062306  1
  S  S71  1  0.17974954  0.99801018  0.21062306  1
  S  S72  1  0.15893564  0.96366873  0.37788387  1
  S  S73  1  0.09039165  0.23100204  0.30405053  1
  S  S74  1  0.82025046  0.00198982  0.78937694  1
  S  S75  1  0.32025046  0.49801018  0.28937694  1
  S  S76  1  0.80737043  0.37790801  0.04004003  1
  S  S77  1  0.67974954  0.99801018  0.28937694  1
  S  S78  1  0.40960835  0.73100204  0.19594947  1
  S  S79  1  0.24214029  0.33035698  0.93144549  1
  S  S80  1  0.69262957  0.62209199  0.54004003  1
  S  S81  1  0.82025046  0.49801018  0.21062306  1
  S  S82  1  0.17974954  0.50198982  0.78937694  1
  S  S83  1  0.75785971  0.83035698  0.93144549  1
