# generated using pymatgen
data_P3IrO9
_symmetry_space_group_name_H-M   'P 1'
_cell_length_a   9.33263976
_cell_length_b   10.51496354
_cell_length_c   11.62460220
_cell_angle_alpha   113.40638887
_cell_angle_beta   109.84187317
_cell_angle_gamma   97.87824592
_symmetry_Int_Tables_number   1
_chemical_formula_structural   P3IrO9
_chemical_formula_sum   'P18 Ir6 O54'
_cell_volume   934.60136425
_cell_formula_units_Z   6
loop_
 _symmetry_equiv_pos_site_id
 _symmetry_equiv_pos_as_xyz
  1  'x, y, z'
loop_
 _atom_site_type_symbol
 _atom_site_label
 _atom_site_symmetry_multiplicity
 _atom_site_fract_x
 _atom_site_fract_y
 _atom_site_fract_z
 _atom_site_occupancy
  P  P0  1  0.17571453  0.78351411  0.39276117  1
  P  P1  1  0.91101831  0.16261758  0.60672232  1
  P  P2  1  0.61356712  0.72086784  0.27496850  1
  P  P3  1  0.24097197  0.49818275  0.27113974  1
  P  P4  1  0.09387649  0.79849064  0.62684208  1
  P  P5  1  0.46983223  0.22704401  0.72886026  1
  P  P6  1  0.56596767  0.85463449  0.94889988  1
  P  P7  1  0.44182128  0.10516175  0.29061378  1
  P  P8  1  0.93428671  0.07034805  0.93562172  1
  P  P9  1  0.96703341  0.17164756  0.37315792  1
  P  P10  1  0.83859863  0.44589934  0.72503150  1
  P  P11  1  0.80429499  0.55589526  0.39327768  1
  P  P12  1  0.75872111  0.48131657  0.96244151  1
  P  P13  1  0.65120750  0.81454697  0.70938622  1
  P  P14  1  0.29627961  0.51887406  0.03755849  1
  P  P15  1  0.28295436  0.39075294  0.60723883  1
  P  P16  1  0.11706779  0.90573461  0.05110012  1
  P  P17  1  0.49866599  0.13472733  0.06437828  1
  Ir  Ir18  1  0.53929746  0.45946409  0.48878219  1
  Ir  Ir19  1  0.87145217  0.82603344  0.17633525  1
  Ir  Ir20  1  0.20443240  0.15485161  0.83945619  1
  Ir  Ir21  1  0.55051527  0.97068290  0.51121781  1
  Ir  Ir22  1  0.19511792  0.64969919  0.82366475  1
  Ir  Ir23  1  0.86497521  0.31539642  0.16054381  1
  O  O24  1  0.85114264  0.41482621  0.04011341  1
  O  O25  1  0.19447628  0.58532988  0.96455497  1
  O  O26  1  0.51321062  0.99343217  0.95552101  1
  O  O27  1  0.33133484  0.14019228  0.01199473  1
  O  O28  1  0.79316349  0.03384849  0.58345959  1
  O  O29  1  0.43674954  0.74462508  0.93781359  1
  O  O30  1  0.31103023  0.37471381  0.95988659  1
  O  O31  1  0.81934011  0.12819755  0.98800527  1
  O  O32  1  0.72992130  0.62077591  0.03544503  1
  O  O33  1  0.90849665  0.70808732  0.52792747  1
  O  O34  1  0.10860058  0.36740866  0.22614980  1
  O  O35  1  0.05768861  0.03791016  0.04447899  1
  O  O36  1  0.27234335  0.98521339  0.19338950  1
  O  O37  1  0.01528102  0.74004680  0.27796507  1
  O  O38  1  0.09353039  0.93631864  0.73129842  1
  O  O39  1  0.02304574  0.16546114  0.89885246  1
  O  O40  1  0.57398635  0.16198349  0.66681281  1
  O  O41  1  0.68585853  0.59935105  0.29302758  1
  O  O42  1  0.86223198  0.20502022  0.26870158  1
  O  O43  1  0.89283095  0.30632346  0.70697242  1
  O  O44  1  0.18387327  0.70743027  0.67272282  1
  O  O45  1  -0.00106405  0.80681049  0.06218641  1
  O  O46  1  0.91728440  0.50155291  0.33597088  1
  O  O47  1  0.53952310  0.77436944  0.37232750  1
  O  O48  1  0.54469444  0.05383002  0.37950580  1
  O  O49  1  0.38245078  0.14125886  0.77385020  1
  O  O50  1  0.34961716  0.26635389  0.62451997  1
  O  O51  1  0.84931611  0.50200703  0.87547020  1
  O  O52  1  0.95266489  0.55442593  0.71938765  1
  O  O53  1  0.58055082  0.38140132  0.85516925  1
  O  O54  1  0.22538057  0.52623107  0.14483075  1
  O  O55  1  0.73327824  0.83503928  0.28061235  1
  O  O56  1  0.08131352  0.16558103  0.66402912  1
  O  O57  1  0.83350705  0.91235462  0.80915083  1
  O  O58  1  0.01115145  0.03470845  0.32727718  1
  O  O59  1  0.47384591  0.62653683  0.12452980  1
  O  O60  1  0.62419328  0.26660968  0.10114754  1
  O  O61  1  0.23731795  0.46208273  0.72203493  1
  O  O62  1  0.57895284  0.79182389  0.80661050  1
  O  O63  1  0.66518964  0.67432422  0.62049420  1
  O  O64  1  0.16248944  0.83522953  0.53434121  1
  O  O65  1  0.66719560  0.40204094  0.62767250  1
  O  O66  1  0.40969517  0.24548733  0.35337933  1
  O  O67  1  0.12814823  0.30088832  0.46565879  1
  O  O68  1  0.39023708  0.48701016  0.58457642  1
  O  O69  1  0.72613233  0.90475554  0.06622842  1
  O  O70  1  0.30566067  0.90243374  0.41542358  1
  O  O71  1  0.52435722  0.10320279  0.19084917  1
  O  O72  1  0.70970390  0.45038790  0.41654041  1
  O  O73  1  0.40717354  0.49517068  0.33318719  1
  O  O74  1  0.15990290  0.83852812  0.93377158  1
  O  O75  1  0.55631685  0.89210800  0.64662067  1
  O  O76  1  0.88056818  0.18015885  0.47207253  1
  O  O77  1  0.22509619  0.64183292  0.37548003  1
