# generated using pymatgen
data_CsSb2F7
_symmetry_space_group_name_H-M   'P 1'
_cell_length_a   10.50625157
_cell_length_b   10.50625157
_cell_length_c   5.88860853
_cell_angle_alpha   91.47918399
_cell_angle_beta   91.47918399
_cell_angle_gamma   35.60807179
_symmetry_Int_Tables_number   1
_chemical_formula_structural   CsSb2F7
_chemical_formula_sum   'Cs2 Sb4 F14'
_cell_volume   378.31083627
_cell_formula_units_Z   2
loop_
 _symmetry_equiv_pos_site_id
 _symmetry_equiv_pos_as_xyz
  1  'x, y, z'
loop_
 _atom_site_type_symbol
 _atom_site_label
 _atom_site_symmetry_multiplicity
 _atom_site_fract_x
 _atom_site_fract_y
 _atom_site_fract_z
 _atom_site_occupancy
  Cs  Cs0  1  0.73220793  0.26779207  0.25000000  1
  Cs  Cs1  1  0.26779207  0.73220793  0.75000000  1
  Sb  Sb2  1  0.92064326  0.41108097  0.73770297  1
  Sb  Sb3  1  0.41108097  0.92064326  0.23770297  1
  Sb  Sb4  1  0.07935674  0.58891903  0.26229703  1
  Sb  Sb5  1  0.58891903  0.07935674  0.76229703  1
  F  F6  1  0.77713980  0.96594818  0.02837853  1
  F  F7  1  0.33170988  0.36432260  0.90734535  1
  F  F8  1  0.22286020  0.03405182  0.97162147  1
  F  F9  1  0.20496687  0.65747016  0.20625412  1
  F  F10  1  0.79503313  0.34252984  0.79374588  1
  F  F11  1  0.63567740  0.66829012  0.59265465  1
  F  F12  1  0.03405182  0.22286020  0.47162147  1
  F  F13  1  0.34252984  0.79503313  0.29374588  1
  F  F14  1  0.36432260  0.33170988  0.40734535  1
  F  F15  1  0.00000000  0.50000000  0.50000000  1
  F  F16  1  0.65747016  0.20496687  0.70625412  1
  F  F17  1  0.96594818  0.77713980  0.52837853  1
  F  F18  1  0.50000000  -0.00000000  0.00000000  1
  F  F19  1  0.66829012  0.63567740  0.09265465  1
