# generated using pymatgen
data_CdPtF6
_symmetry_space_group_name_H-M   'P 1'
_cell_length_a   5.70333753
_cell_length_b   5.70333714
_cell_length_c   5.70333673
_cell_angle_alpha   52.82793300
_cell_angle_beta   52.82791973
_cell_angle_gamma   52.82792678
_symmetry_Int_Tables_number   1
_chemical_formula_structural   CdPtF6
_chemical_formula_sum   'Cd1 Pt1 F6'
_cell_volume   109.11691006
_cell_formula_units_Z   1
loop_
 _symmetry_equiv_pos_site_id
 _symmetry_equiv_pos_as_xyz
  1  'x, y, z'
loop_
 _atom_site_type_symbol
 _atom_site_label
 _atom_site_symmetry_multiplicity
 _atom_site_fract_x
 _atom_site_fract_y
 _atom_site_fract_z
 _atom_site_occupancy
  Cd  Cd0  1  -0.00000000  -0.00000000  0.00000000  1
  Pt  Pt1  1  0.50000000  0.50000000  0.50000000  1
  F  F2  1  0.10179401  0.44069604  0.72311457  1
  F  F3  1  0.44069604  0.72311457  0.10179401  1
  F  F4  1  0.27688543  0.89820599  0.55930396  1
  F  F5  1  0.55930396  0.27688543  0.89820599  1
  F  F6  1  0.89820599  0.55930396  0.27688543  1
  F  F7  1  0.72311457  0.10179401  0.44069604  1
