# generated using pymatgen
data_K3Mo2Br9
_symmetry_space_group_name_H-M   'P 1'
_cell_length_a   7.50516748
_cell_length_b   7.50514840
_cell_length_c   18.19833456
_cell_angle_alpha   90.00004290
_cell_angle_beta   90.00072182
_cell_angle_gamma   120.00077838
_symmetry_Int_Tables_number   1
_chemical_formula_structural   K3Mo2Br9
_chemical_formula_sum   'K6 Mo4 Br18'
_cell_volume   887.72518726
_cell_formula_units_Z   2
loop_
 _symmetry_equiv_pos_site_id
 _symmetry_equiv_pos_as_xyz
  1  'x, y, z'
loop_
 _atom_site_type_symbol
 _atom_site_label
 _atom_site_symmetry_multiplicity
 _atom_site_fract_x
 _atom_site_fract_y
 _atom_site_fract_z
 _atom_site_occupancy
  K  K0  1  0.33332362  0.66664822  0.94518483  1
  K  K1  1  0.66667059  0.33333140  0.44513023  1
  K  K2  1  0.00000570  0.99999239  0.25000603  1
  K  K3  1  0.66667085  0.33331024  0.05486461  1
  K  K4  1  0.33332571  0.66666382  0.55492422  1
  K  K5  1  0.00000265  0.99999266  0.74999573  1
  Mo  Mo6  1  0.33333628  0.66665524  0.17274124  1
  Mo  Mo7  1  0.33333228  0.66667273  0.32721958  1
  Mo  Mo8  1  0.66665735  0.33333385  0.67278316  1
  Mo  Mo9  1  0.66667403  0.33335219  0.82724242  1
  Br  Br10  1  0.22911888  0.88173307  0.09218379  1
  Br  Br11  1  0.99957169  0.55350677  0.24997198  1
  Br  Br12  1  0.44592865  0.99953688  0.75002573  1
  Br  Br13  1  0.88176511  0.65260491  0.59222583  1
  Br  Br14  1  0.22911339  0.88175456  0.40777717  1
  Br  Br15  1  0.77082095  0.11820851  0.90776966  1
  Br  Br16  1  0.34738213  0.22919672  0.90778925  1
  Br  Br17  1  0.00047163  0.44639302  0.75001980  1
  Br  Br18  1  0.55395725  0.00040593  0.24996947  1
  Br  Br19  1  0.55359451  0.55410206  0.75001788  1
  Br  Br20  1  0.77079830  0.11819549  0.59223951  1
  Br  Br21  1  0.65263399  0.77089748  0.09218423  1
  Br  Br22  1  0.44647934  0.44604227  0.24997831  1
  Br  Br23  1  0.88183756  0.65262775  0.90778938  1
  Br  Br24  1  0.65263065  0.77094064  0.40778327  1
  Br  Br25  1  0.11824955  0.34736556  0.09217745  1
  Br  Br26  1  0.34737062  0.22914817  0.59222755  1
  Br  Br27  1  0.11827974  0.34738647  0.40777570  1
