# generated using pymatgen
data_K2BiF5
_symmetry_space_group_name_H-M   'P 1'
_cell_length_a   6.59061788
_cell_length_b   7.46977510
_cell_length_c   11.21073223
_cell_angle_alpha   90.00000000
_cell_angle_beta   90.00000000
_cell_angle_gamma   90.00000000
_symmetry_Int_Tables_number   1
_chemical_formula_structural   K2BiF5
_chemical_formula_sum   'K8 Bi4 F20'
_cell_volume   551.90920567
_cell_formula_units_Z   4
loop_
 _symmetry_equiv_pos_site_id
 _symmetry_equiv_pos_as_xyz
  1  'x, y, z'
loop_
 _atom_site_type_symbol
 _atom_site_label
 _atom_site_symmetry_multiplicity
 _atom_site_fract_x
 _atom_site_fract_y
 _atom_site_fract_z
 _atom_site_occupancy
  K  K0  1  0.99535077  0.00134470  0.33089008  1
  K  K1  1  0.99535077  0.49865530  0.33089008  1
  K  K2  1  0.49535077  0.50134470  0.16910992  1
  K  K3  1  0.50464923  0.49865530  0.83089008  1
  K  K4  1  0.00464923  0.50134470  0.66910992  1
  K  K5  1  0.50464923  0.00134470  0.83089008  1
  K  K6  1  0.49535077  0.99865530  0.16910992  1
  K  K7  1  0.00464923  0.99865530  0.66910992  1
  Bi  Bi8  1  0.06482905  0.25000000  0.95695681  1
  Bi  Bi9  1  0.43517095  0.25000000  0.45695681  1
  Bi  Bi10  1  0.56482905  0.75000000  0.54304319  1
  Bi  Bi11  1  0.93517095  0.75000000  0.04304319  1
  F  F12  1  0.77625932  0.75000000  0.21896525  1
  F  F13  1  0.88719758  0.45537633  0.09514238  1
  F  F14  1  0.69105004  0.25000000  0.32921129  1
  F  F15  1  0.61280242  0.45537633  0.59514238  1
  F  F16  1  0.38719758  0.54462367  0.40485762  1
  F  F17  1  0.72374068  0.75000000  0.71896525  1
  F  F18  1  0.90112650  0.75000000  0.49257564  1
  F  F19  1  0.59887350  0.75000000  0.99257564  1
  F  F20  1  0.27625932  0.25000000  0.28103475  1
  F  F21  1  0.88719758  0.04462367  0.09514238  1
  F  F22  1  0.30894996  0.75000000  0.67078871  1
  F  F23  1  0.80894996  0.25000000  0.82921129  1
  F  F24  1  0.22374068  0.25000000  0.78103475  1
  F  F25  1  0.38719758  0.95537633  0.40485762  1
  F  F26  1  0.40112650  0.25000000  0.00742436  1
  F  F27  1  0.09887350  0.25000000  0.50742436  1
  F  F28  1  0.61280242  0.04462367  0.59514238  1
  F  F29  1  0.11280242  0.95537633  0.90485762  1
  F  F30  1  0.19105004  0.75000000  0.17078871  1
  F  F31  1  0.11280242  0.54462367  0.90485762  1
