# generated using pymatgen
data_AsSeI
_symmetry_space_group_name_H-M   'P 1'
_cell_length_a   4.24538604
_cell_length_b   9.30427732
_cell_length_c   13.70976254
_cell_angle_alpha   47.15332853
_cell_angle_beta   90.00000000
_cell_angle_gamma   90.00000000
_symmetry_Int_Tables_number   1
_chemical_formula_structural   AsSeI
_chemical_formula_sum   'As4 Se4 I4'
_cell_volume   397.04351419
_cell_formula_units_Z   4
loop_
 _symmetry_equiv_pos_site_id
 _symmetry_equiv_pos_as_xyz
  1  'x, y, z'
loop_
 _atom_site_type_symbol
 _atom_site_label
 _atom_site_symmetry_multiplicity
 _atom_site_fract_x
 _atom_site_fract_y
 _atom_site_fract_z
 _atom_site_occupancy
  As  As0  1  0.83071502  0.49033676  0.86289174  1
  As  As1  1  0.16928498  0.50966324  0.13710826  1
  As  As2  1  0.66928498  0.49033676  0.36289174  1
  As  As3  1  0.33071502  0.50966324  0.63710826  1
  Se  Se4  1  0.92955724  0.29686198  0.80747302  1
  Se  Se5  1  0.57044276  0.29686198  0.30747302  1
  Se  Se6  1  0.42955724  0.70313802  0.69252698  1
  Se  Se7  1  0.07044276  0.70313802  0.19252698  1
  I  I8  1  0.51497400  0.79669377  0.92285411  1
  I  I9  1  0.98502600  0.79669377  0.42285411  1
  I  I10  1  0.01497400  0.20330623  0.57714589  1
  I  I11  1  0.48502600  0.20330623  0.07714589  1
