# generated using pymatgen
data_K2Th(PSe3)3
_symmetry_space_group_name_H-M   'P 1'
_cell_length_a   10.27558251
_cell_length_b   10.56160758
_cell_length_c   16.65115349
_cell_angle_alpha   90.22292894
_cell_angle_beta   107.49645778
_cell_angle_gamma   91.35584361
_symmetry_Int_Tables_number   1
_chemical_formula_structural   K2Th(PSe3)3
_chemical_formula_sum   'K8 Th4 P12 Se36'
_cell_volume   1722.89269789
_cell_formula_units_Z   4
loop_
 _symmetry_equiv_pos_site_id
 _symmetry_equiv_pos_as_xyz
  1  'x, y, z'
loop_
 _atom_site_type_symbol
 _atom_site_label
 _atom_site_symmetry_multiplicity
 _atom_site_fract_x
 _atom_site_fract_y
 _atom_site_fract_z
 _atom_site_occupancy
  K  K0  1  0.79379524  0.83266867  0.14861529  1
  K  K1  1  0.20620476  0.16733133  0.85138471  1
  K  K2  1  0.94732511  0.73618418  0.45306173  1
  K  K3  1  0.05267489  0.26381582  0.54693827  1
  K  K4  1  0.52802501  0.25753380  0.53402410  1
  K  K5  1  0.47197499  0.74246620  0.46597590  1
  K  K6  1  0.73697781  0.30503510  0.85969032  1
  K  K7  1  0.26302219  0.69496490  0.14030968  1
  Th  Th8  1  0.72610174  0.28127935  0.16934668  1
  Th  Th9  1  0.27389826  0.71872065  0.83065332  1
  Th  Th10  1  0.30560880  0.22208871  0.22214247  1
  Th  Th11  1  0.69439120  0.77791129  0.77785753  1
  P  P12  1  0.03726043  0.50158736  0.28259494  1
  P  P13  1  0.96273957  0.49841264  0.71740506  1
  P  P14  1  0.71961458  0.08631522  0.35036620  1
  P  P15  1  0.28038542  0.91368478  0.64963380  1
  P  P16  1  0.22459717  0.43320827  0.37664048  1
  P  P17  1  0.77540283  0.56679173  0.62335952  1
  P  P18  1  0.57063185  0.57507979  0.99140454  1
  P  P19  1  0.42936815  0.42492021  0.00859546  1
  P  P20  1  0.00961929  0.07129668  0.05262093  1
  P  P21  1  0.99038071  0.92870332  0.94737907  1
  P  P22  1  0.55133939  0.95905085  0.27565282  1
  P  P23  1  0.44866061  0.04094915  0.72434718  1
  Se  Se24  1  0.77302910  0.51430071  0.06621956  1
  Se  Se25  1  0.22697090  0.48569929  0.93378044  1
  Se  Se26  1  0.49674513  0.05807084  0.15023391  1
  Se  Se27  1  0.50325487  0.94192916  0.84976609  1
  Se  Se28  1  0.46531585  0.43392773  0.14696221  1
  Se  Se29  1  0.53468415  0.56607227  0.85303779  1
  Se  Se30  1  0.03109355  0.37736273  0.17197637  1
  Se  Se31  1  0.96890645  0.62263627  0.82802363  1
  Se  Se32  1  0.79545837  0.11789646  0.03536764  1
  Se  Se33  1  0.20454163  0.88210354  0.96463236  1
  Se  Se34  1  0.87379157  0.08011479  0.28350790  1
  Se  Se35  1  0.12620843  0.91988521  0.71649210  1
  Se  Se36  1  0.21327613  0.22626467  0.37705730  1
  Se  Se37  1  0.78672387  0.77373533  0.62294270  1
  Se  Se38  1  0.60971478  0.27035468  0.32694619  1
  Se  Se39  1  0.39028522  0.72964532  0.67305381  1
  Se  Se40  1  0.51105257  0.24594605  0.98422435  1
  Se  Se41  1  0.48894743  0.75405395  0.01577565  1
  Se  Se42  1  0.85675201  0.44633557  0.31946125  1
  Se  Se43  1  0.14324799  0.55366443  0.68053875  1
  Se  Se44  1  0.11982042  0.98845131  0.17334397  1
  Se  Se45  1  0.88017958  0.01154869  0.82665603  1
  Se  Se46  1  0.13541759  0.22923405  0.03135897  1
  Se  Se47  1  0.86458241  0.77076595  0.96864103  1
  Se  Se48  1  0.38991755  0.99267233  0.33339335  1
  Se  Se49  1  0.61008245  0.00732767  0.66660665  1
  Se  Se50  1  0.06978696  0.70153686  0.27245165  1
  Se  Se51  1  0.93021304  0.29846314  0.72754835  1
  Se  Se52  1  0.78580214  0.03548372  0.47929033  1
  Se  Se53  1  0.21419786  0.96451628  0.52070967  1
  Se  Se54  1  0.61139782  0.76670884  0.27938034  1
  Se  Se55  1  0.38860218  0.23329116  0.72061966  1
  Se  Se56  1  0.25137372  0.51743782  0.49718416  1
  Se  Se57  1  0.74862528  0.48256218  0.50281584  1
  Se  Se58  1  0.37354403  0.48364289  0.30992649  1
  Se  Se59  1  0.62645597  0.51635611  0.69007351  1
