# generated using pymatgen
data_La(BO2)3
_symmetry_space_group_name_H-M   'P 1'
_cell_length_a   11.74063210
_cell_length_b   4.24193927
_cell_length_c   7.30376861
_cell_angle_alpha   88.83486045
_cell_angle_beta   90.00000000
_cell_angle_gamma   90.00000000
_symmetry_Int_Tables_number   1
_chemical_formula_structural   La(BO2)3
_chemical_formula_sum   'La4 B12 O24'
_cell_volume   363.67473234
_cell_formula_units_Z   4
loop_
 _symmetry_equiv_pos_site_id
 _symmetry_equiv_pos_as_xyz
  1  'x, y, z'
loop_
 _atom_site_type_symbol
 _atom_site_label
 _atom_site_symmetry_multiplicity
 _atom_site_fract_x
 _atom_site_fract_y
 _atom_site_fract_z
 _atom_site_occupancy
  La  La0  1  0.37639541  0.78051054  0.88127276  1
  La  La1  1  0.62360459  0.21948946  0.11872724  1
  La  La2  1  0.87639541  0.21948946  0.61872724  1
  La  La3  1  0.12360459  0.78051054  0.38127276  1
  B  B4  1  0.16606205  0.32351085  0.71112766  1
  B  B5  1  0.83393795  0.67648915  0.28887234  1
  B  B6  1  0.59365307  0.19483007  0.62643695  1
  B  B7  1  0.66606205  0.67648915  0.78887234  1
  B  B8  1  0.62168230  0.68861591  0.42705202  1
  B  B9  1  0.12168230  0.31138409  0.07294798  1
  B  B10  1  0.09365307  0.80516993  0.87356305  1
  B  B11  1  0.33393795  0.32351085  0.21112766  1
  B  B12  1  0.37831770  0.31138409  0.57294798  1
  B  B13  1  0.87831770  0.68861591  0.92705202  1
  B  B14  1  0.40634693  0.80516993  0.37356305  1
  B  B15  1  0.90634693  0.19483007  0.12643695  1
  O  O16  1  0.62706366  0.84622562  0.61049835  1
  O  O17  1  0.71584969  0.77949474  0.30750547  1
  O  O18  1  0.90954468  0.74955127  0.43735875  1
  O  O19  1  0.02402733  0.20685998  0.18193072  1
  O  O20  1  0.40954468  0.25044873  0.06264125  1
  O  O21  1  0.62028037  0.34886003  0.45349950  1
  O  O22  1  0.12706366  0.15377438  0.88950165  1
  O  O23  1  0.21584969  0.22050526  0.19249453  1
  O  O24  1  0.97597267  0.79314002  0.81806928  1
  O  O25  1  0.87293634  0.84622562  0.11049835  1
  O  O26  1  0.83183341  0.33219819  0.26370308  1
  O  O27  1  0.47597267  0.20685998  0.68193072  1
  O  O28  1  0.33183341  0.66780181  0.23629692  1
  O  O29  1  0.52402733  0.79314002  0.31806928  1
  O  O30  1  0.12028037  0.65113997  0.04650050  1
  O  O31  1  0.16816659  0.66780181  0.73629692  1
  O  O32  1  0.59045532  0.74955127  0.93735875  1
  O  O33  1  0.28415031  0.22050526  0.69249453  1
  O  O34  1  0.37293634  0.15377438  0.38950165  1
  O  O35  1  0.78415031  0.77949474  0.80750547  1
  O  O36  1  0.87971963  0.34886003  0.95349950  1
  O  O37  1  0.09045532  0.25044873  0.56264125  1
  O  O38  1  0.66816659  0.33219819  0.76370308  1
  O  O39  1  0.37971963  0.65113997  0.54650050  1
