# generated using pymatgen
data_Pb3(BrO)2
_symmetry_space_group_name_H-M   'P 1'
_cell_length_a   5.92250655
_cell_length_b   9.97447514
_cell_length_c   12.36872974
_cell_angle_alpha   90.00000000
_cell_angle_beta   90.00000000
_cell_angle_gamma   90.00000000
_symmetry_Int_Tables_number   1
_chemical_formula_structural   Pb3(BrO)2
_chemical_formula_sum   'Pb12 Br8 O8'
_cell_volume   730.66903390
_cell_formula_units_Z   4
loop_
 _symmetry_equiv_pos_site_id
 _symmetry_equiv_pos_as_xyz
  1  'x, y, z'
loop_
 _atom_site_type_symbol
 _atom_site_label
 _atom_site_symmetry_multiplicity
 _atom_site_fract_x
 _atom_site_fract_y
 _atom_site_fract_z
 _atom_site_occupancy
  Pb  Pb0  1  0.25000000  0.07623430  0.07848683  1
  Pb  Pb1  1  0.75000000  0.92376570  0.92151317  1
  Pb  Pb2  1  0.75000000  0.57623430  0.42151317  1
  Pb  Pb3  1  0.25000000  0.42376570  0.57848683  1
  Pb  Pb4  1  0.25000000  0.36551904  0.29034776  1
  Pb  Pb5  1  0.75000000  0.63448096  0.70965224  1
  Pb  Pb6  1  0.75000000  0.86551904  0.20965224  1
  Pb  Pb7  1  0.25000000  0.13448096  0.79034776  1
  Pb  Pb8  1  0.25000000  0.78585390  0.55647823  1
  Pb  Pb9  1  0.75000000  0.21414610  0.44352177  1
  Pb  Pb10  1  0.75000000  0.28585390  0.94352177  1
  Pb  Pb11  1  0.25000000  0.71414610  0.05647823  1
  Br  Br12  1  0.25000000  0.07835363  0.37153382  1
  Br  Br13  1  0.75000000  0.92164637  0.62846618  1
  Br  Br14  1  0.75000000  0.57835363  0.12846618  1
  Br  Br15  1  0.25000000  0.42164637  0.87153382  1
  Br  Br16  1  0.25000000  0.80563362  0.80982464  1
  Br  Br17  1  0.75000000  0.19436638  0.19017536  1
  Br  Br18  1  0.75000000  0.30563362  0.69017536  1
  Br  Br19  1  0.25000000  0.69436638  0.30982464  1
  O  O20  1  0.99601915  0.38946204  0.42321810  1
  O  O21  1  0.49601915  0.61053796  0.57678190  1
  O  O22  1  0.00398085  0.88946204  0.07678190  1
  O  O23  1  0.50398085  0.11053796  0.92321810  1
  O  O24  1  0.00398085  0.61053796  0.57678190  1
  O  O25  1  0.50398085  0.38946204  0.42321810  1
  O  O26  1  0.99601915  0.11053796  0.92321810  1
  O  O27  1  0.49601915  0.88946204  0.07678190  1
