# generated using pymatgen
data_OsOF4
_symmetry_space_group_name_H-M   'P 1'
_cell_length_a   12.56834982
_cell_length_b   5.37819428
_cell_length_c   5.59062796
_cell_angle_alpha   62.30186599
_cell_angle_beta   90.00000000
_cell_angle_gamma   90.00000000
_symmetry_Int_Tables_number   1
_chemical_formula_structural   OsOF4
_chemical_formula_sum   'Os4 O4 F16'
_cell_volume   334.59477569
_cell_formula_units_Z   4
loop_
 _symmetry_equiv_pos_site_id
 _symmetry_equiv_pos_as_xyz
  1  'x, y, z'
loop_
 _atom_site_type_symbol
 _atom_site_label
 _atom_site_symmetry_multiplicity
 _atom_site_fract_x
 _atom_site_fract_y
 _atom_site_fract_z
 _atom_site_occupancy
  Os  Os0  1  0.64507147  0.38724822  0.32778040  1
  Os  Os1  1  0.35492853  0.61275178  0.67221960  1
  Os  Os2  1  0.85492853  0.38724822  0.82778040  1
  Os  Os3  1  0.14507147  0.61275178  0.17221960  1
  O  O4  1  0.37796949  0.26923419  0.81759006  1
  O  O5  1  0.12203051  0.26923419  0.31759006  1
  O  O6  1  0.87796949  0.73076581  0.68240994  1
  O  O7  1  0.62203051  0.73076581  0.18240994  1
  F  F8  1  0.47844910  0.74217631  0.76637434  1
  F  F9  1  0.97844910  0.25782369  0.73362566  1
  F  F10  1  0.58607477  0.26635452  0.67110319  1
  F  F11  1  0.78958061  0.45223874  0.46181618  1
  F  F12  1  0.29356213  0.96589299  0.56683823  1
  F  F13  1  0.08607477  0.73364548  0.82889681  1
  F  F14  1  0.02155090  0.74217631  0.26637434  1
  F  F15  1  0.21041939  0.54776126  0.53818382  1
  F  F16  1  0.70643787  0.03410701  0.43316177  1
  F  F17  1  0.79356213  0.03410701  0.93316177  1
  F  F18  1  0.20643787  0.96589299  0.06683823  1
  F  F19  1  0.41392523  0.73364548  0.32889681  1
  F  F20  1  0.91392523  0.26635452  0.17110319  1
  F  F21  1  0.28958061  0.54776126  0.03818382  1
  F  F22  1  0.52155090  0.25782369  0.23362566  1
  F  F23  1  0.71041939  0.45223874  0.96181618  1
