# generated using pymatgen
data_Rb2Ce(NO3)6
_symmetry_space_group_name_H-M   'P 1'
_cell_length_a   6.90784427
_cell_length_b   8.20792247
_cell_length_c   15.02755467
_cell_angle_alpha   58.86796097
_cell_angle_beta   90.00000000
_cell_angle_gamma   90.00000000
_symmetry_Int_Tables_number   1
_chemical_formula_structural   Rb2Ce(NO3)6
_chemical_formula_sum   'Rb4 Ce2 N12 O36'
_cell_volume   729.33450416
_cell_formula_units_Z   2
loop_
 _symmetry_equiv_pos_site_id
 _symmetry_equiv_pos_as_xyz
  1  'x, y, z'
loop_
 _atom_site_type_symbol
 _atom_site_label
 _atom_site_symmetry_multiplicity
 _atom_site_fract_x
 _atom_site_fract_y
 _atom_site_fract_z
 _atom_site_occupancy
  Rb  Rb0  1  0.76941843  0.62604293  0.33917535  1
  Rb  Rb1  1  0.73058157  0.62604293  0.83917535  1
  Rb  Rb2  1  0.26941843  0.37395707  0.16082465  1
  Rb  Rb3  1  0.23058157  0.37395707  0.66082465  1
  Ce  Ce4  1  0.50000000  -0.00000000  0.50000000  1
  Ce  Ce5  1  -0.00000000  -0.00000000  -0.00000000  1
  N  N6  1  0.74599343  0.66615649  0.55446063  1
  N  N7  1  0.24090767  0.78473577  0.68222118  1
  N  N8  1  0.75909233  0.21526423  0.31777882  1
  N  N9  1  0.24599343  0.33384351  0.94553937  1
  N  N10  1  0.25400657  0.33384351  0.44553937  1
  N  N11  1  0.72646349  0.11101205  0.11105679  1
  N  N12  1  0.77353651  0.11101205  0.61105679  1
  N  N13  1  0.74090767  0.21526423  0.81777882  1
  N  N14  1  0.22646349  0.88898795  0.38894321  1
  N  N15  1  0.75400657  0.66615649  0.05446063  1
  N  N16  1  0.25909233  0.78473577  0.18222118  1
  N  N17  1  0.27353651  0.88898795  0.88894321  1
  O  O18  1  0.37854126  0.68913267  0.24942078  1
  O  O19  1  0.62145874  0.31086733  0.75057922  1
  O  O20  1  0.41253811  0.30072603  0.49676522  1
  O  O21  1  0.91253811  0.69927397  0.00323478  1
  O  O22  1  0.11072368  0.85362408  0.34012043  1
  O  O23  1  0.14000032  0.45420991  0.43800871  1
  O  O24  1  0.88927632  0.14637592  0.65987957  1
  O  O25  1  0.77847595  0.03833638  0.38110234  1
  O  O26  1  0.77572067  0.76760151  0.59441795  1
  O  O27  1  0.71119426  0.17627536  0.01378437  1
  O  O28  1  0.58746189  0.69927397  0.50323478  1
  O  O29  1  0.28880574  0.82372464  0.98621563  1
  O  O30  1  0.60538049  0.29093054  0.32937505  1
  O  O31  1  0.89461951  0.29093054  0.82937505  1
  O  O32  1  0.72152405  0.03833638  0.88110234  1
  O  O33  1  0.27847595  0.96166362  0.11889766  1
  O  O34  1  0.38927632  0.85362408  0.84012043  1
  O  O35  1  0.87854126  0.31086733  0.25057922  1
  O  O36  1  0.27572067  0.23239849  0.90558205  1
  O  O37  1  0.85999968  0.54579009  0.56199129  1
  O  O38  1  0.35999968  0.45420991  0.93800871  1
  O  O39  1  0.37331733  -0.00261452  0.34496452  1
  O  O40  1  0.61072368  0.14637592  0.15987957  1
  O  O41  1  0.12145874  0.68913267  0.74942078  1
  O  O42  1  0.22152405  0.96166362  0.61889766  1
  O  O43  1  0.22427933  0.23239849  0.40558205  1
  O  O44  1  0.64000032  0.54579009  0.06199129  1
  O  O45  1  0.08746189  0.30072603  0.99676522  1
  O  O46  1  0.87331733  0.00261452  0.15503548  1
  O  O47  1  0.39461951  0.70906946  0.67062495  1
  O  O48  1  0.12668267  -0.00261452  0.84496452  1
  O  O49  1  0.72427933  0.76760151  0.09441795  1
  O  O50  1  0.10538049  0.70906946  0.17062495  1
  O  O51  1  0.78880574  0.17627536  0.51378437  1
  O  O52  1  0.62668267  0.00261452  0.65503548  1
  O  O53  1  0.21119426  0.82372464  0.48621563  1
