# generated using pymatgen
data_MgAlPO5
_symmetry_space_group_name_H-M   'P 1'
_cell_length_a   5.24910324
_cell_length_b   7.10162348
_cell_length_c   10.29207918
_cell_angle_alpha   90.00000000
_cell_angle_beta   90.00000000
_cell_angle_gamma   90.33938060
_symmetry_Int_Tables_number   1
_chemical_formula_structural   MgAlPO5
_chemical_formula_sum   'Mg4 Al4 P4 O20'
_cell_volume   383.65269857
_cell_formula_units_Z   4
loop_
 _symmetry_equiv_pos_site_id
 _symmetry_equiv_pos_as_xyz
  1  'x, y, z'
loop_
 _atom_site_type_symbol
 _atom_site_label
 _atom_site_symmetry_multiplicity
 _atom_site_fract_x
 _atom_site_fract_y
 _atom_site_fract_z
 _atom_site_occupancy
  Mg  Mg0  1  0.90785800  0.97953149  0.85697808  1
  Mg  Mg1  1  0.09214200  0.02046851  0.14302092  1
  Mg  Mg2  1  0.40785800  0.97953149  0.64302192  1
  Mg  Mg3  1  0.59214200  0.02046851  0.35697908  1
  Al  Al4  1  0.32434569  0.64049189  0.82964852  1
  Al  Al5  1  0.82434569  0.64049189  0.67035148  1
  Al  Al6  1  0.17565431  0.35950811  0.32964852  1
  Al  Al7  1  0.67565431  0.35950811  0.17035148  1
  P  P8  1  0.58713248  0.77930711  0.09359558  1
  P  P9  1  0.41286752  0.22069289  0.90640442  1
  P  P10  1  0.08713248  0.77930711  0.40640442  1
  P  P11  1  0.91286752  0.22069289  0.59359558  1
  O  O12  1  0.02775957  0.72900125  0.78993327  1
  O  O13  1  0.52775957  0.72900125  0.71006673  1
  O  O14  1  0.17966869  0.11645878  0.96026988  1
  O  O15  1  0.17116311  0.60414568  0.33324966  1
  O  O16  1  0.40911543  0.72249142  0.98322248  1
  O  O17  1  0.44029219  0.91029166  0.18489738  1
  O  O18  1  0.67966869  0.11645878  0.53973012  1
  O  O19  1  0.47224043  0.27099875  0.28993327  1
  O  O20  1  0.97224043  0.27099875  0.21006673  1
  O  O21  1  0.32033131  0.88354122  0.46026988  1
  O  O22  1  0.05970781  0.08970834  0.68489738  1
  O  O23  1  0.32883689  0.39585432  0.83324966  1
  O  O24  1  0.94029219  0.91029166  0.31510262  1
  O  O25  1  0.90911543  0.72249142  0.51677752  1
  O  O26  1  0.82033131  0.88354122  0.03973012  1
  O  O27  1  0.59088457  0.27750858  0.01677752  1
  O  O28  1  0.09088457  0.27750858  0.48322248  1
  O  O29  1  0.67116311  0.60414568  0.16675034  1
  O  O30  1  0.82883689  0.39585432  0.66675034  1
  O  O31  1  0.55970781  0.08970834  0.81510262  1
