# generated using pymatgen
data_Ga(IO3)3
_symmetry_space_group_name_H-M   'P 1'
_cell_length_a   9.11239447
_cell_length_b   9.11216511
_cell_length_c   5.26513502
_cell_angle_alpha   89.99929604
_cell_angle_beta   90.00185760
_cell_angle_gamma   119.99928224
_symmetry_Int_Tables_number   1
_chemical_formula_structural   Ga(IO3)3
_chemical_formula_sum   'Ga2 I6 O18'
_cell_volume   378.61461795
_cell_formula_units_Z   2
loop_
 _symmetry_equiv_pos_site_id
 _symmetry_equiv_pos_as_xyz
  1  'x, y, z'
loop_
 _atom_site_type_symbol
 _atom_site_label
 _atom_site_symmetry_multiplicity
 _atom_site_fract_x
 _atom_site_fract_y
 _atom_site_fract_z
 _atom_site_occupancy
  Ga  Ga0  1  0.66667167  0.33333631  0.39614754  1
  Ga  Ga1  1  0.33332799  0.66666866  0.89614908  1
  I  I2  1  0.68651707  0.66431793  0.75630155  1
  I  I3  1  0.31346425  0.33564457  0.25630223  1
  I  I4  1  0.02217642  0.68650924  0.25629941  1
  I  I5  1  0.33568034  0.02219770  0.75630433  1
  I  I6  1  0.66433521  0.97781531  0.25628690  1
  I  I7  1  0.97780982  0.31347799  0.75628426  1
  O  O8  1  0.82836438  0.77933357  0.50327442  1
  O  O9  1  0.57699932  0.45095481  0.60750214  1
  O  O10  1  0.87396099  0.42299694  0.60748212  1
  O  O11  1  0.77933848  0.95094778  0.00321242  1
  O  O12  1  0.22068065  0.04907617  0.50326537  1
  O  O13  1  0.04907259  0.82841095  0.00324445  1
  O  O14  1  0.71363838  0.19142987  0.16600095  1
  O  O15  1  0.54903448  0.12603114  0.60748887  1
  O  O16  1  0.47780831  0.28638957  0.16599386  1
  O  O17  1  0.95094155  0.17160262  0.50325058  1
  O  O18  1  0.42299621  0.54903239  0.10749278  1
  O  O19  1  0.12603243  0.57699679  0.10747372  1
  O  O20  1  0.28635211  0.80858129  0.66600106  1
  O  O21  1  0.52218994  0.71361357  0.66601101  1
  O  O22  1  0.45097249  0.87397110  0.10747589  1
  O  O23  1  0.80858183  0.52222039  0.16599140  1
  O  O24  1  0.17162907  0.22065736  0.00324726  1
  O  O25  1  0.19142401  0.47778499  0.66597443  1
