# generated using pymatgen
data_Gd2O3
_symmetry_space_group_name_H-M   'P 1'
_cell_length_a   9.35828283
_cell_length_b   9.35828202
_cell_length_c   9.35828377
_cell_angle_alpha   109.47122002
_cell_angle_beta   109.47121824
_cell_angle_gamma   109.47122161
_symmetry_Int_Tables_number   1
_chemical_formula_structural   Gd2O3
_chemical_formula_sum   'Gd16 O24'
_cell_volume   630.90885906
_cell_formula_units_Z   8
loop_
 _symmetry_equiv_pos_site_id
 _symmetry_equiv_pos_as_xyz
  1  'x, y, z'
loop_
 _atom_site_type_symbol
 _atom_site_label
 _atom_site_symmetry_multiplicity
 _atom_site_fract_x
 _atom_site_fract_y
 _atom_site_fract_z
 _atom_site_occupancy
  Gd  Gd0  1  0.50000000  0.50000000  0.50000000  1
  Gd  Gd1  1  0.00000000  0.00000000  0.50000000  1
  Gd  Gd2  1  0.50000000  0.00000000  0.00000000  1
  Gd  Gd3  1  0.00000000  0.50000000  0.00000000  1
  Gd  Gd4  1  0.25000000  0.21830590  0.96830590  1
  Gd  Gd5  1  0.28169410  0.53169410  0.75000000  1
  Gd  Gd6  1  0.53169410  0.75000000  0.28169410  1
  Gd  Gd7  1  0.21830590  0.96830590  0.25000000  1
  Gd  Gd8  1  0.96830590  0.25000000  0.21830590  1
  Gd  Gd9  1  0.75000000  0.28169410  0.53169410  1
  Gd  Gd10  1  0.75000000  0.78169410  0.03169410  1
  Gd  Gd11  1  0.71830590  0.46830590  0.25000000  1
  Gd  Gd12  1  0.46830590  0.25000000  0.71830590  1
  Gd  Gd13  1  0.78169410  0.03169410  0.75000000  1
  Gd  Gd14  1  0.03169410  0.75000000  0.78169410  1
  Gd  Gd15  1  0.25000000  0.71830590  0.46830590  1
  O  O16  1  0.53029573  0.77013979  0.54156195  1
  O  O17  1  0.98873378  0.95843805  0.72857784  1
  O  O18  1  0.26015494  0.77142216  0.72986021  1
  O  O19  1  0.51126622  0.23984506  0.96970427  1
  O  O20  1  0.95843805  0.72857784  0.98873378  1
  O  O21  1  0.72986021  0.26015494  0.77142216  1
  O  O22  1  0.23984506  0.96970427  0.51126622  1
  O  O23  1  0.54156195  0.53029573  0.77013979  1
  O  O24  1  0.77013979  0.54156195  0.53029573  1
  O  O25  1  0.72857784  0.98873378  0.95843805  1
  O  O26  1  0.77142216  0.72986021  0.26015494  1
  O  O27  1  0.96970427  0.51126622  0.23984506  1
  O  O28  1  0.46970427  0.22986021  0.45843805  1
  O  O29  1  0.01126622  0.04156195  0.27142216  1
  O  O30  1  0.73984506  0.22857784  0.27013979  1
  O  O31  1  0.48873378  0.76015494  0.03029573  1
  O  O32  1  0.04156195  0.27142216  0.01126622  1
  O  O33  1  0.27013979  0.73984506  0.22857784  1
  O  O34  1  0.76015494  0.03029573  0.48873378  1
  O  O35  1  0.45843805  0.46970427  0.22986021  1
  O  O36  1  0.22986021  0.45843805  0.46970427  1
  O  O37  1  0.27142216  0.01126622  0.04156195  1
  O  O38  1  0.22857784  0.27013979  0.73984506  1
  O  O39  1  0.03029573  0.48873378  0.76015494  1
