# generated using pymatgen
data_CaTiO3
_symmetry_space_group_name_H-M   'P 1'
_cell_length_a   5.41040193
_cell_length_b   5.41040193
_cell_length_c   5.41040193
_cell_angle_alpha   119.77655700
_cell_angle_beta   119.57778242
_cell_angle_gamma   90.56015927
_symmetry_Int_Tables_number   1
_chemical_formula_structural   CaTiO3
_chemical_formula_sum   'Ca2 Ti2 O6'
_cell_volume   112.52875727
_cell_formula_units_Z   2
loop_
 _symmetry_equiv_pos_site_id
 _symmetry_equiv_pos_as_xyz
  1  'x, y, z'
loop_
 _atom_site_type_symbol
 _atom_site_label
 _atom_site_symmetry_multiplicity
 _atom_site_fract_x
 _atom_site_fract_y
 _atom_site_fract_z
 _atom_site_occupancy
  Ca  Ca0  1  0.76157101  0.75000000  0.01157101  1
  Ca  Ca1  1  0.23842899  0.25000000  0.98842899  1
  Ti  Ti2  1  -0.00000000  0.50000000  0.50000000  1
  Ti  Ti3  1  0.50000000  -0.00000000  0.50000000  1
  O  O4  1  0.20483132  0.70483132  0.00000000  1
  O  O5  1  0.66656736  0.25000000  0.41656736  1
  O  O6  1  0.20483132  0.20483132  0.50000000  1
  O  O7  1  0.79516868  0.29516868  -0.00000000  1
  O  O8  1  0.79516868  0.79516868  0.50000000  1
  O  O9  1  0.33343264  0.75000000  0.58343264  1
