# generated using pymatgen
data_KFeP2O7
_symmetry_space_group_name_H-M   'P 1'
_cell_length_a   10.04517902
_cell_length_b   7.35040566
_cell_length_c   8.21004398
_cell_angle_alpha   73.47942065
_cell_angle_beta   90.00000000
_cell_angle_gamma   90.00000000
_symmetry_Int_Tables_number   1
_chemical_formula_structural   KFeP2O7
_chemical_formula_sum   'K4 Fe4 P8 O28'
_cell_volume   581.17269228
_cell_formula_units_Z   4
loop_
 _symmetry_equiv_pos_site_id
 _symmetry_equiv_pos_as_xyz
  1  'x, y, z'
loop_
 _atom_site_type_symbol
 _atom_site_label
 _atom_site_symmetry_multiplicity
 _atom_site_fract_x
 _atom_site_fract_y
 _atom_site_fract_z
 _atom_site_occupancy
  K  K0  1  0.67766203  0.17706264  0.94633158  1
  K  K1  1  0.17766203  0.82293736  0.55366842  1
  K  K2  1  0.32233797  0.82293736  0.05366842  1
  K  K3  1  0.82233797  0.17706264  0.44633158  1
  Fe  Fe4  1  0.40087729  0.23519106  0.23884722  1
  Fe  Fe5  1  0.90087729  0.76480894  0.26115278  1
  Fe  Fe6  1  0.59912271  0.76480894  0.76115278  1
  Fe  Fe7  1  0.09912271  0.23519106  0.73884722  1
  P  P8  1  0.36204035  0.44281482  0.80818272  1
  P  P9  1  0.86204035  0.55718518  0.69181728  1
  P  P10  1  0.63795965  0.55718518  0.19181728  1
  P  P11  1  0.13795965  0.44281482  0.30818272  1
  P  P12  1  0.09636044  0.13351569  0.16938979  1
  P  P13  1  0.59636044  0.86648431  0.33061021  1
  P  P14  1  0.90363956  0.86648431  0.83061021  1
  P  P15  1  0.40363956  0.13351569  0.66938979  1
  O  O16  1  0.43824000  0.34175216  0.68411957  1
  O  O17  1  0.93824000  0.65824784  0.81588043  1
  O  O18  1  0.56176000  0.65824784  0.31588043  1
  O  O19  1  0.06176000  0.34175216  0.18411957  1
  O  O20  1  0.26614906  0.07995262  0.74547514  1
  O  O21  1  0.76614906  0.92004738  0.75452486  1
  O  O22  1  0.73385094  0.92004738  0.25452486  1
  O  O23  1  0.23385094  0.07995262  0.24547514  1
  O  O24  1  0.41914000  0.64119390  0.76779380  1
  O  O25  1  0.91914000  0.35880610  0.73220620  1
  O  O26  1  0.58086000  0.35880610  0.23220620  1
  O  O27  1  0.08086000  0.64119390  0.26779380  1
  O  O28  1  0.40952420  0.14384222  0.48516368  1
  O  O29  1  0.90952420  0.85615778  0.01483632  1
  O  O30  1  0.59047580  0.85615778  0.51483632  1
  O  O31  1  0.09047580  0.14384222  0.98516368  1
  O  O32  1  0.39261196  0.32147111  0.98598850  1
  O  O33  1  0.89261196  0.67852889  0.51401150  1
  O  O34  1  0.60738804  0.67852889  0.01401150  1
  O  O35  1  0.10738804  0.32147111  0.48598850  1
  O  O36  1  0.50674299  0.00272357  0.77791535  1
  O  O37  1  0.00674299  0.99727643  0.72208465  1
  O  O38  1  0.49325701  0.99727643  0.22208465  1
  O  O39  1  0.99325701  0.00272357  0.27791535  1
  O  O40  1  0.21565483  0.45280121  0.75817570  1
  O  O41  1  0.71565483  0.54719879  0.74182430  1
  O  O42  1  0.78434517  0.54719879  0.24182430  1
  O  O43  1  0.28434517  0.45280121  0.25817570  1
