# generated using pymatgen
data_Rb2TeBr6
_symmetry_space_group_name_H-M   'P 1'
_cell_length_a   7.64416085
_cell_length_b   7.64416016
_cell_length_c   7.70366363
_cell_angle_alpha   119.74482698
_cell_angle_beta   119.74482151
_cell_angle_gamma   89.99999989
_symmetry_Int_Tables_number   1
_chemical_formula_structural   Rb2TeBr6
_chemical_formula_sum   'Rb2 Te1 Br6'
_cell_volume   320.74355042
_cell_formula_units_Z   1
loop_
 _symmetry_equiv_pos_site_id
 _symmetry_equiv_pos_as_xyz
  1  'x, y, z'
loop_
 _atom_site_type_symbol
 _atom_site_label
 _atom_site_symmetry_multiplicity
 _atom_site_fract_x
 _atom_site_fract_y
 _atom_site_fract_z
 _atom_site_occupancy
  Rb  Rb0  1  0.25000000  0.75000000  0.50000000  1
  Rb  Rb1  1  0.75000000  0.25000000  0.50000000  1
  Te  Te2  1  0.00000000  -0.00000000  -0.00000000  1
  Br  Br3  1  0.27319705  0.77354016  -0.00000000  1
  Br  Br4  1  0.75243818  0.75243818  0.50487635  1
  Br  Br5  1  0.77354016  0.72680295  -0.00000000  1
  Br  Br6  1  0.22645984  0.27319705  0.00000000  1
  Br  Br7  1  0.24756182  0.24756182  0.49512365  1
  Br  Br8  1  0.72680295  0.22645984  0.00000000  1
