# generated using pymatgen
data_AlTeCl7
_symmetry_space_group_name_H-M   'P 1'
_cell_length_a   6.60390717
_cell_length_b   8.47726234
_cell_length_c   19.86718117
_cell_angle_alpha   93.32607293
_cell_angle_beta   95.39982017
_cell_angle_gamma   97.41258911
_symmetry_Int_Tables_number   1
_chemical_formula_structural   AlTeCl7
_chemical_formula_sum   'Al4 Te4 Cl28'
_cell_volume   1095.25965910
_cell_formula_units_Z   4
loop_
 _symmetry_equiv_pos_site_id
 _symmetry_equiv_pos_as_xyz
  1  'x, y, z'
loop_
 _atom_site_type_symbol
 _atom_site_label
 _atom_site_symmetry_multiplicity
 _atom_site_fract_x
 _atom_site_fract_y
 _atom_site_fract_z
 _atom_site_occupancy
  Al  Al0  1  0.31439194  0.11487427  0.39869033  1
  Al  Al1  1  0.71923932  0.33088756  0.87735320  1
  Al  Al2  1  0.68560806  0.88512573  0.60130967  1
  Al  Al3  1  0.28076068  0.66911244  0.12264680  1
  Te  Te4  1  0.72416164  0.29332012  0.10692564  1
  Te  Te5  1  0.24548435  0.25477052  0.61701037  1
  Te  Te6  1  0.27583836  0.70667988  0.89307436  1
  Te  Te7  1  0.75451565  0.74522948  0.38298963  1
  Cl  Cl8  1  0.56697949  0.38557480  0.65776217  1
  Cl  Cl9  1  0.59093132  0.83421902  0.94253003  1
  Cl  Cl10  1  0.32037850  0.87155508  0.19112185  1
  Cl  Cl11  1  0.13364041  0.22413720  0.72291643  1
  Cl  Cl12  1  0.87406366  0.06243089  0.11696474  1
  Cl  Cl13  1  0.57337053  0.61355923  0.09375766  1
  Cl  Cl14  1  0.36659074  0.69649272  0.78388192  1
  Cl  Cl15  1  0.90568366  0.28953360  0.96844310  1
  Cl  Cl16  1  0.87276474  0.81229498  0.68205238  1
  Cl  Cl17  1  0.17736177  0.90661401  0.44436509  1
  Cl  Cl18  1  0.42662947  0.38644077  0.90624234  1
  Cl  Cl19  1  0.13530381  0.46263116  0.16775335  1
  Cl  Cl20  1  0.89726464  0.51210897  0.39809942  1
  Cl  Cl21  1  0.61687781  0.69456447  0.52183574  1
  Cl  Cl22  1  0.82263823  0.09338599  0.55563491  1
  Cl  Cl23  1  0.60323916  0.06527065  0.36513340  1
  Cl  Cl24  1  0.12593634  0.93756911  0.88303526  1
  Cl  Cl25  1  0.40906868  0.16578098  0.05746997  1
  Cl  Cl26  1  0.67962150  0.12844492  0.80887815  1
  Cl  Cl27  1  0.12723526  0.18770502  0.31794762  1
  Cl  Cl28  1  0.10273536  0.48789103  0.60190058  1
  Cl  Cl29  1  0.86635959  0.77586280  0.27708357  1
  Cl  Cl30  1  0.09431634  0.71046640  0.03155690  1
  Cl  Cl31  1  0.63340926  0.30350728  0.21611808  1
  Cl  Cl32  1  0.86469619  0.53736884  0.83224665  1
  Cl  Cl33  1  0.43302051  0.61442520  0.34223783  1
  Cl  Cl34  1  0.39676084  0.93472935  0.63486660  1
  Cl  Cl35  1  0.38312219  0.30543553  0.47816426  1
