# generated using pymatgen
data_P2W2O11
_symmetry_space_group_name_H-M   'P 1'
_cell_length_a   6.34858161
_cell_length_b   7.65493908
_cell_length_c   7.79986301
_cell_angle_alpha   90.00000000
_cell_angle_beta   90.00000000
_cell_angle_gamma   90.00000000
_symmetry_Int_Tables_number   1
_chemical_formula_structural   P2W2O11
_chemical_formula_sum   'P4 W4 O22'
_cell_volume   379.05778522
_cell_formula_units_Z   2
loop_
 _symmetry_equiv_pos_site_id
 _symmetry_equiv_pos_as_xyz
  1  'x, y, z'
loop_
 _atom_site_type_symbol
 _atom_site_label
 _atom_site_symmetry_multiplicity
 _atom_site_fract_x
 _atom_site_fract_y
 _atom_site_fract_z
 _atom_site_occupancy
  P  P0  1  0.50000000  0.38389380  0.74533160  1
  P  P1  1  -0.00000000  0.88389380  0.75466840  1
  P  P2  1  -0.00000000  0.11610620  0.24533160  1
  P  P3  1  0.50000000  0.61610620  0.25466840  1
  W  W4  1  0.50000000  0.18344252  0.15988594  1
  W  W5  1  0.50000000  0.81655748  0.84011406  1
  W  W6  1  -0.00000000  0.68344252  0.34011406  1
  W  W7  1  -0.00000000  0.31655748  0.65988594  1
  O  O8  1  0.30850831  0.31129442  0.64687598  1
  O  O9  1  0.80850831  0.18870558  0.14687598  1
  O  O10  1  0.30850831  0.68870558  0.35312402  1
  O  O11  1  0.50000000  0.66806770  0.07005806  1
  O  O12  1  0.50000000  0.93834697  0.65824515  1
  O  O13  1  0.80850831  0.81129442  0.85312402  1
  O  O14  1  0.69149169  0.31129442  0.64687598  1
  O  O15  1  -0.00000000  0.16806770  0.42994194  1
  O  O16  1  -0.00000000  0.83193230  0.57005806  1
  O  O17  1  0.50000000  0.58491089  0.72775214  1
  O  O18  1  0.69149169  0.68870558  0.35312402  1
  O  O19  1  0.50000000  0.06165303  0.34175485  1
  O  O20  1  0.19149169  0.18870558  0.14687598  1
  O  O21  1  -0.00000000  0.43834697  0.84175485  1
  O  O22  1  0.50000000  0.41508911  0.27224786  1
  O  O23  1  -0.00000000  0.08491089  0.77224786  1
  O  O24  1  -0.00000000  0.56165303  0.15824515  1
  O  O25  1  0.50000000  0.33193230  0.92994194  1
  O  O26  1  -0.00000000  0.91508911  0.22775214  1
  O  O27  1  -0.00000000  0.50000000  0.50000000  1
  O  O28  1  0.19149169  0.81129442  0.85312402  1
  O  O29  1  0.50000000  0.00000000  -0.00000000  1
