# generated using pymatgen
data_Cs2ZnO2
_symmetry_space_group_name_H-M   'P 1'
_cell_length_a   6.64087163
_cell_length_b   9.87465578
_cell_length_c   16.41247539
_cell_angle_alpha   62.75470859
_cell_angle_beta   90.00000000
_cell_angle_gamma   90.00000000
_symmetry_Int_Tables_number   1
_chemical_formula_structural   Cs2ZnO2
_chemical_formula_sum   'Cs16 Zn8 O16'
_cell_volume   956.86276194
_cell_formula_units_Z   8
loop_
 _symmetry_equiv_pos_site_id
 _symmetry_equiv_pos_as_xyz
  1  'x, y, z'
loop_
 _atom_site_type_symbol
 _atom_site_label
 _atom_site_symmetry_multiplicity
 _atom_site_fract_x
 _atom_site_fract_y
 _atom_site_fract_z
 _atom_site_occupancy
  Cs  Cs0  1  0.17476468  0.14418253  0.52343836  1
  Cs  Cs1  1  0.13890194  0.92641053  0.83836835  1
  Cs  Cs2  1  0.07673067  0.57207965  0.37943886  1
  Cs  Cs3  1  0.57673067  0.42792035  0.12056114  1
  Cs  Cs4  1  0.36109806  0.92641053  0.33836835  1
  Cs  Cs5  1  0.82523532  0.85581747  0.47656164  1
  Cs  Cs6  1  0.32523532  0.14418253  0.02343836  1
  Cs  Cs7  1  0.63890194  0.07358947  0.66163165  1
  Cs  Cs8  1  0.90957219  0.67785740  0.74092518  1
  Cs  Cs9  1  0.92326933  0.42792035  0.62056114  1
  Cs  Cs10  1  0.40957219  0.32214260  0.75907482  1
  Cs  Cs11  1  0.86109806  0.07358947  0.16163165  1
  Cs  Cs12  1  0.42326933  0.57207965  0.87943886  1
  Cs  Cs13  1  0.67476468  0.85581747  0.97656164  1
  Cs  Cs14  1  0.09042781  0.32214260  0.25907482  1
  Cs  Cs15  1  0.59042781  0.67785740  0.24092518  1
  Zn  Zn16  1  0.13391247  0.75375460  0.12790998  1
  Zn  Zn17  1  0.86608753  0.24624540  0.87209002  1
  Zn  Zn18  1  0.44501516  0.58576490  0.53979383  1
  Zn  Zn19  1  0.63391247  0.24624540  0.37209002  1
  Zn  Zn20  1  0.94501516  0.41423510  0.96020617  1
  Zn  Zn21  1  0.55498484  0.41423510  0.46020617  1
  Zn  Zn22  1  0.05498484  0.58576490  0.03979383  1
  Zn  Zn23  1  0.36608753  0.75375460  0.62790998  1
  O  O24  1  0.69305455  0.14350536  0.30538015  1
  O  O25  1  0.88115989  0.63001663  0.93119327  1
  O  O26  1  0.72309572  0.27089512  0.96834571  1
  O  O27  1  0.91302648  0.61867446  0.13910240  1
  O  O28  1  0.27690428  0.72910488  0.03165429  1
  O  O29  1  0.19305455  0.85649464  0.19461985  1
  O  O30  1  0.80694545  0.14350536  0.80538015  1
  O  O31  1  0.22309572  0.72910488  0.53165429  1
  O  O32  1  0.30694545  0.85649464  0.69461985  1
  O  O33  1  0.61884011  0.63001663  0.43119327  1
  O  O34  1  0.38115989  0.36998337  0.56880673  1
  O  O35  1  0.58697352  0.61867446  0.63910240  1
  O  O36  1  0.77690428  0.27089512  0.46834571  1
  O  O37  1  0.11884011  0.36998337  0.06880673  1
  O  O38  1  0.08697352  0.38132554  0.86089760  1
  O  O39  1  0.41302648  0.38132554  0.36089760  1
