# generated using pymatgen
data_CdI2
_symmetry_space_group_name_H-M   'P 1'
_cell_length_a   4.28376403
_cell_length_b   4.28376486
_cell_length_c   94.85300939
_cell_angle_alpha   90.00000000
_cell_angle_beta   90.00000000
_cell_angle_gamma   119.99999348
_symmetry_Int_Tables_number   1
_chemical_formula_structural   CdI2
_chemical_formula_sum   'Cd13 I26'
_cell_volume   1507.41536849
_cell_formula_units_Z   13
loop_
 _symmetry_equiv_pos_site_id
 _symmetry_equiv_pos_as_xyz
  1  'x, y, z'
loop_
 _atom_site_type_symbol
 _atom_site_label
 _atom_site_symmetry_multiplicity
 _atom_site_fract_x
 _atom_site_fract_y
 _atom_site_fract_z
 _atom_site_occupancy
  Cd  Cd0  1  0.00000000  -0.00000000  0.40439605  1
  Cd  Cd1  1  0.00000000  -0.00000000  0.63461173  1
  Cd  Cd2  1  0.00000000  -0.00000000  0.78756593  1
  Cd  Cd3  1  0.66666700  0.33333300  0.48193561  1
  Cd  Cd4  1  0.00000000  -0.00000000  0.55812618  1
  Cd  Cd5  1  0.66666700  0.33333300  0.17314300  1
  Cd  Cd6  1  0.00000000  -0.00000000  0.94214030  1
  Cd  Cd7  1  0.66666700  0.33333300  0.32732908  1
  Cd  Cd8  1  0.33333300  0.66666700  0.86489113  1
  Cd  Cd9  1  0.00000000  -0.00000000  0.71053701  1
  Cd  Cd10  1  0.00000000  -0.00000000  0.09616382  1
  Cd  Cd11  1  0.66666700  0.33333300  0.01868706  1
  Cd  Cd12  1  0.00000000  -0.00000000  0.25042756  1
  I  I13  1  0.66666700  0.33333300  0.69255490  1
  I  I14  1  0.33333300  0.66666700  0.80560227  1
  I  I15  1  0.66666700  0.33333300  0.23238940  1
  I  I16  1  0.33333300  0.66666700  0.65262218  1
  I  I17  1  0.00000000  0.00000000  0.15509736  1
  I  I18  1  0.00000000  -0.00000000  0.46393891  1
  I  I19  1  0.33333300  0.66666700  0.34530945  1
  I  I20  1  0.33333300  0.66666700  0.03669644  1
  I  I21  1  0.33333300  0.66666700  0.96015367  1
  I  I22  1  0.66666700  0.33333300  0.92411797  1
  I  I23  1  0.66666700  0.33333300  0.38639315  1
  I  I24  1  0.33333300  0.66666700  0.42242120  1
  I  I25  1  0.66666700  0.33333300  0.84691217  1
  I  I26  1  0.33333300  0.66666700  0.26840743  1
  I  I27  1  0.33333300  0.66666700  0.57612744  1
  I  I28  1  0.66666700  0.33333300  0.54015355  1
  I  I29  1  0.33333300  0.66666700  0.11416349  1
  I  I30  1  0.33333300  0.66666700  0.19113352  1
  I  I31  1  0.33333300  0.66666700  0.72855075  1
  I  I32  1  0.00000000  0.00000000  0.88292801  1
  I  I33  1  0.00000000  0.00000000  0.30929326  1
  I  I34  1  0.66666700  0.33333300  0.61663774  1
  I  I35  1  0.00000000  -0.00000000  0.00067356  1
  I  I36  1  0.66666700  0.33333300  0.07813356  1
  I  I37  1  0.33333300  0.66666700  0.49995374  1
  I  I38  1  0.66666700  0.33333300  0.76958240  1
