# generated using pymatgen
data_Nd2Ti2O7
_symmetry_space_group_name_H-M   'P 1'
_cell_length_a   7.28549978
_cell_length_b   7.28550001
_cell_length_c   7.28550129
_cell_angle_alpha   60.00000304
_cell_angle_beta   60.00000200
_cell_angle_gamma   59.99999980
_symmetry_Int_Tables_number   1
_chemical_formula_structural   Nd2Ti2O7
_chemical_formula_sum   'Nd4 Ti4 O14'
_cell_volume   273.44070808
_cell_formula_units_Z   2
loop_
 _symmetry_equiv_pos_site_id
 _symmetry_equiv_pos_as_xyz
  1  'x, y, z'
loop_
 _atom_site_type_symbol
 _atom_site_label
 _atom_site_symmetry_multiplicity
 _atom_site_fract_x
 _atom_site_fract_y
 _atom_site_fract_z
 _atom_site_occupancy
  Nd  Nd0  1  0.50000000  0.50000000  0.50000000  1
  Nd  Nd1  1  0.50000000  0.00000000  0.50000000  1
  Nd  Nd2  1  -0.00000000  0.50000000  0.50000000  1
  Nd  Nd3  1  0.50000000  0.50000000  0.00000000  1
  Ti  Ti4  1  -0.00000000  0.00000000  0.00000000  1
  Ti  Ti5  1  -0.00000000  0.00000000  0.50000000  1
  Ti  Ti6  1  0.50000000  0.00000000  0.00000000  1
  Ti  Ti7  1  -0.00000000  0.50000000  0.00000000  1
  O  O8  1  0.07494718  0.07494718  0.67505282  1
  O  O9  1  0.67505282  0.67505282  0.07494718  1
  O  O10  1  0.07494718  0.67505282  0.07494718  1
  O  O11  1  0.92505282  0.32494718  0.92505282  1
  O  O12  1  0.32494718  0.32494718  0.92505282  1
  O  O13  1  0.67505282  0.07494718  0.67505282  1
  O  O14  1  0.92505282  0.92505282  0.32494718  1
  O  O15  1  0.67505282  0.07494718  0.07494718  1
  O  O16  1  0.92505282  0.32494718  0.32494718  1
  O  O17  1  0.32494718  0.92505282  0.32494718  1
  O  O18  1  0.62500000  0.62500000  0.62500000  1
  O  O19  1  0.37500000  0.37500000  0.37500000  1
  O  O20  1  0.32494718  0.92505282  0.92505282  1
  O  O21  1  0.07494718  0.67505282  0.67505282  1
