# generated using pymatgen
data_Bi2O3
_symmetry_space_group_name_H-M   'P 1'
_cell_length_a   5.05513533
_cell_length_b   5.56914313
_cell_length_c   12.63384146
_cell_angle_alpha   90.00000000
_cell_angle_beta   90.00000000
_cell_angle_gamma   90.00000000
_symmetry_Int_Tables_number   1
_chemical_formula_structural   Bi2O3
_chemical_formula_sum   'Bi8 O12'
_cell_volume   355.67766056
_cell_formula_units_Z   4
loop_
 _symmetry_equiv_pos_site_id
 _symmetry_equiv_pos_as_xyz
  1  'x, y, z'
loop_
 _atom_site_type_symbol
 _atom_site_label
 _atom_site_symmetry_multiplicity
 _atom_site_fract_x
 _atom_site_fract_y
 _atom_site_fract_z
 _atom_site_occupancy
  Bi  Bi0  1  0.96138078  0.68145624  0.62613753  1
  Bi  Bi1  1  0.53861922  0.18145624  0.62613753  1
  Bi  Bi2  1  0.46138078  0.31854376  0.12613753  1
  Bi  Bi3  1  0.46138078  0.81854376  0.37386247  1
  Bi  Bi4  1  0.96138078  0.18145624  0.87386247  1
  Bi  Bi5  1  0.53861922  0.68145624  0.87386247  1
  Bi  Bi6  1  0.03861922  0.81854376  0.12613753  1
  Bi  Bi7  1  0.03861922  0.31854376  0.37386247  1
  O  O8  1  0.38677410  0.67656266  0.05840542  1
  O  O9  1  0.11322590  0.17656266  0.05840542  1
  O  O10  1  0.25000000  0.51957277  0.25000000  1
  O  O11  1  0.75000000  0.48042723  0.75000000  1
  O  O12  1  0.75000000  0.98042723  0.75000000  1
  O  O13  1  0.11322590  0.67656266  0.44159458  1
  O  O14  1  0.38677410  0.17656266  0.44159458  1
  O  O15  1  0.88677410  0.82343734  0.94159458  1
  O  O16  1  0.61322590  0.32343734  0.94159458  1
  O  O17  1  0.61322590  0.82343734  0.55840542  1
  O  O18  1  0.88677410  0.32343734  0.55840542  1
  O  O19  1  0.25000000  0.01957277  0.25000000  1
