# generated using pymatgen
data_Cs7Cu6F19
_symmetry_space_group_name_H-M   'P 1'
_cell_length_a   6.25390924
_cell_length_b   11.44072763
_cell_length_c   15.85169456
_cell_angle_alpha   82.62092964
_cell_angle_beta   90.00000000
_cell_angle_gamma   90.00000000
_symmetry_Int_Tables_number   1
_chemical_formula_structural   Cs7Cu6F19
_chemical_formula_sum   'Cs14 Cu12 F38'
_cell_volume   1124.78411777
_cell_formula_units_Z   2
loop_
 _symmetry_equiv_pos_site_id
 _symmetry_equiv_pos_as_xyz
  1  'x, y, z'
loop_
 _atom_site_type_symbol
 _atom_site_label
 _atom_site_symmetry_multiplicity
 _atom_site_fract_x
 _atom_site_fract_y
 _atom_site_fract_z
 _atom_site_occupancy
  Cs  Cs0  1  0.00844543  0.05413416  0.15155255  1
  Cs  Cs1  1  0.98980445  0.59416998  0.79299999  1
  Cs  Cs2  1  0.01019555  0.40583002  0.20700001  1
  Cs  Cs3  1  0.50844543  0.94586584  0.34844745  1
  Cs  Cs4  1  0.99834637  0.15861094  0.43384785  1
  Cs  Cs5  1  0.49834637  0.84138906  0.06615215  1
  Cs  Cs6  1  0.51019555  0.59416998  0.29299999  1
  Cs  Cs7  1  -0.00000000  0.50000000  0.50000000  1
  Cs  Cs8  1  0.00165363  0.84138906  0.56615215  1
  Cs  Cs9  1  0.49155457  0.05413416  0.65155255  1
  Cs  Cs10  1  0.48980445  0.40583002  0.70700001  1
  Cs  Cs11  1  0.50000000  0.50000000  -0.00000000  1
  Cs  Cs12  1  0.50165363  0.15861094  0.93384785  1
  Cs  Cs13  1  0.99155457  0.94586584  0.84844745  1
  Cu  Cu14  1  0.99690064  0.67101804  0.01392131  1
  Cu  Cu15  1  0.99604082  0.27189550  0.82133756  1
  Cu  Cu16  1  0.49690064  0.32898196  0.48607869  1
  Cu  Cu17  1  0.50395918  0.27189550  0.32133756  1
  Cu  Cu18  1  0.00309936  0.32898196  0.98607869  1
  Cu  Cu19  1  0.50518474  0.23105297  0.15298159  1
  Cu  Cu20  1  0.00518474  0.76894703  0.34701841  1
  Cu  Cu21  1  0.49604082  0.72810450  0.67866244  1
  Cu  Cu22  1  0.99481526  0.23105297  0.65298159  1
  Cu  Cu23  1  0.50309936  0.67101804  0.51392131  1
  Cu  Cu24  1  0.00395918  0.72810450  0.17866244  1
  Cu  Cu25  1  0.49481526  0.76894703  0.84701841  1
  F  F26  1  0.80748900  0.63732448  0.11159797  1
  F  F27  1  0.27611880  0.27580269  0.07424874  1
  F  F28  1  0.77380757  0.35871249  0.86399426  1
  F  F29  1  0.28924317  0.70843045  0.43168300  1
  F  F30  1  0.50000000  0.50000000  0.50000000  1
  F  F31  1  0.71075683  0.29156955  0.56831700  1
  F  F32  1  0.99971971  0.38210649  0.69092051  1
  F  F33  1  0.72104919  0.81346855  0.72040993  1
  F  F34  1  0.00028029  0.61789351  0.30907949  1
  F  F35  1  0.77895081  0.81346855  0.22040993  1
  F  F36  1  0.72619243  0.35871249  0.36399426  1
  F  F37  1  0.80072325  0.18597997  0.75296437  1
  F  F38  1  0.69251100  0.63732448  0.61159797  1
  F  F39  1  0.50028029  0.38210649  0.19092051  1
  F  F40  1  0.78924317  0.29156955  0.06831700  1
  F  F41  1  0.27895081  0.18653145  0.27959007  1
  F  F42  1  0.49971971  0.61789351  0.80907949  1
  F  F43  1  0.98977930  0.07712930  0.62484898  1
  F  F44  1  0.22388120  0.27580269  0.57424874  1
  F  F45  1  0.48977930  0.92287070  0.87515102  1
  F  F46  1  0.00465921  0.83094219  0.04412371  1
  F  F47  1  0.69927675  0.18597997  0.25296437  1
  F  F48  1  0.51022070  0.07712930  0.12484898  1
  F  F49  1  0.19251100  0.36267552  0.88840203  1
  F  F50  1  0.19927675  0.81402003  0.24703563  1
  F  F51  1  0.30072325  0.81402003  0.74703563  1
  F  F52  1  0.30748900  0.36267552  0.38840203  1
  F  F53  1  0.01022070  0.92287070  0.37515102  1
  F  F54  1  0.22619243  0.64128751  0.13600574  1
  F  F55  1  0.21075683  0.70843045  0.93168300  1
  F  F56  1  0.77611880  0.72419731  0.42575126  1
  F  F57  1  0.72388120  0.72419731  0.92575126  1
  F  F58  1  0.22104919  0.18653145  0.77959007  1
  F  F59  1  0.49534079  0.83094219  0.54412371  1
  F  F60  1  0.27380757  0.64128751  0.63600574  1
  F  F61  1  0.50465921  0.16905781  0.45587629  1
  F  F62  1  -0.00000000  0.50000000  -0.00000000  1
  F  F63  1  0.99534079  0.16905781  0.95587629  1
