# generated using pymatgen
data_Cs2PSe5
_symmetry_space_group_name_H-M   'P 1'
_cell_length_a   7.49743235
_cell_length_b   7.62401682
_cell_length_c   10.34572784
_cell_angle_alpha   85.54579802
_cell_angle_beta   87.86179773
_cell_angle_gamma   85.26511229
_symmetry_Int_Tables_number   1
_chemical_formula_structural   Cs2PSe5
_chemical_formula_sum   'Cs4 P2 Se10'
_cell_volume   587.28514444
_cell_formula_units_Z   2
loop_
 _symmetry_equiv_pos_site_id
 _symmetry_equiv_pos_as_xyz
  1  'x, y, z'
loop_
 _atom_site_type_symbol
 _atom_site_label
 _atom_site_symmetry_multiplicity
 _atom_site_fract_x
 _atom_site_fract_y
 _atom_site_fract_z
 _atom_site_occupancy
  Cs  Cs0  1  0.80046999  0.14174271  0.63529005  1
  Cs  Cs1  1  0.19953001  0.85825729  0.36470995  1
  Cs  Cs2  1  0.22169823  0.27780057  0.96883991  1
  Cs  Cs3  1  0.77830177  0.72219943  0.03116009  1
  P  P4  1  0.24923845  0.79028321  0.77903424  1
  P  P5  1  0.75076155  0.20971679  0.22096576  1
  Se  Se6  1  0.97896892  0.32622761  0.29090735  1
  Se  Se7  1  0.50440486  0.59453820  0.75810761  1
  Se  Se8  1  0.30218688  0.03930228  0.67590400  1
  Se  Se9  1  0.02103108  0.67377239  0.70909265  1
  Se  Se10  1  0.59450136  0.60471136  0.54134198  1
  Se  Se11  1  0.40549864  0.39528864  0.45865802  1
  Se  Se12  1  0.26924542  0.77320892  0.99048734  1
  Se  Se13  1  0.69781312  0.96069772  0.32409600  1
  Se  Se14  1  0.73075458  0.22679108  0.00951266  1
  Se  Se15  1  0.49559514  0.40546180  0.24189239  1
