# generated using pymatgen
data_Cs4SiTe4
_symmetry_space_group_name_H-M   'P 1'
_cell_length_a   15.27914550
_cell_length_b   15.27914550
_cell_length_c   15.27914550
_cell_angle_alpha   90.00000000
_cell_angle_beta   90.00000000
_cell_angle_gamma   90.00000000
_symmetry_Int_Tables_number   1
_chemical_formula_structural   Cs4SiTe4
_chemical_formula_sum   'Cs32 Si8 Te32'
_cell_volume   3566.95146359
_cell_formula_units_Z   8
loop_
 _symmetry_equiv_pos_site_id
 _symmetry_equiv_pos_as_xyz
  1  'x, y, z'
loop_
 _atom_site_type_symbol
 _atom_site_label
 _atom_site_symmetry_multiplicity
 _atom_site_fract_x
 _atom_site_fract_y
 _atom_site_fract_z
 _atom_site_occupancy
  Cs  Cs0  1  0.13295289  0.91218686  0.35035843  1
  Cs  Cs1  1  0.41218686  0.63295289  0.85035843  1
  Cs  Cs2  1  0.86704711  0.91218686  0.64964157  1
  Cs  Cs3  1  0.58781314  0.63295289  0.14964157  1
  Cs  Cs4  1  0.58781314  0.36704711  0.85035843  1
  Cs  Cs5  1  0.35035843  0.86704711  0.08781314  1
  Cs  Cs6  1  0.08781314  0.35035843  0.86704711  1
  Cs  Cs7  1  0.64990153  0.64990153  0.64990153  1
  Cs  Cs8  1  0.36704711  0.85035843  0.58781314  1
  Cs  Cs9  1  0.85009847  0.85009847  0.14990153  1
  Cs  Cs10  1  0.63295289  0.14964157  0.58781314  1
  Cs  Cs11  1  0.86704711  0.08781314  0.35035843  1
  Cs  Cs12  1  0.13295289  0.08781314  0.64964157  1
  Cs  Cs13  1  0.85035843  0.58781314  0.36704711  1
  Cs  Cs14  1  0.14990153  0.85009847  0.85009847  1
  Cs  Cs15  1  0.91218686  0.64964157  0.86704711  1
  Cs  Cs16  1  0.64964157  0.13295289  0.08781314  1
  Cs  Cs17  1  0.41218686  0.36704711  0.14964157  1
  Cs  Cs18  1  0.91218686  0.35035843  0.13295289  1
  Cs  Cs19  1  0.35035843  0.13295289  0.91218686  1
  Cs  Cs20  1  0.36704711  0.14964157  0.41218686  1
  Cs  Cs21  1  0.35009847  0.64990153  0.35009847  1
  Cs  Cs22  1  0.85035843  0.41218686  0.63295289  1
  Cs  Cs23  1  0.14990153  0.14990153  0.14990153  1
  Cs  Cs24  1  0.14964157  0.58781314  0.63295289  1
  Cs  Cs25  1  0.14964157  0.41218686  0.36704711  1
  Cs  Cs26  1  0.08781314  0.64964157  0.13295289  1
  Cs  Cs27  1  0.85009847  0.14990153  0.85009847  1
  Cs  Cs28  1  0.63295289  0.85035843  0.41218686  1
  Cs  Cs29  1  0.64964157  0.86704711  0.91218686  1
  Cs  Cs30  1  0.64990153  0.35009847  0.35009847  1
  Cs  Cs31  1  0.35009847  0.35009847  0.64990153  1
  Si  Si32  1  -0.00000000  0.75000000  0.50000000  1
  Si  Si33  1  0.50000000  -0.00000000  0.25000000  1
  Si  Si34  1  0.75000000  0.50000000  -0.00000000  1
  Si  Si35  1  0.50000000  0.50000000  0.50000000  1
  Si  Si36  1  0.25000000  0.50000000  -0.00000000  1
  Si  Si37  1  -0.00000000  0.25000000  0.50000000  1
  Si  Si38  1  0.50000000  -0.00000000  0.75000000  1
  Si  Si39  1  -0.00000000  -0.00000000  -0.00000000  1
  Te  Te40  1  0.60469733  0.90773432  0.65944201  1
  Te  Te41  1  0.84055799  0.59226568  0.10469733  1
  Te  Te42  1  0.34055799  0.39530267  0.90773432  1
  Te  Te43  1  0.65944201  0.39530267  0.09226568  1
  Te  Te44  1  0.84055799  0.40773432  0.89530267  1
  Te  Te45  1  0.10469733  0.84055799  0.59226568  1
  Te  Te46  1  0.60469733  0.09226568  0.34055799  1
  Te  Te47  1  0.59226568  0.89530267  0.15944201  1
  Te  Te48  1  0.40426831  0.40426831  0.40426831  1
  Te  Te49  1  0.15944201  0.59226568  0.89530267  1
  Te  Te50  1  0.89530267  0.84055799  0.40773432  1
  Te  Te51  1  0.09226568  0.34055799  0.60469733  1
  Te  Te52  1  0.15944201  0.40773432  0.10469733  1
  Te  Te53  1  0.39530267  0.09226568  0.65944201  1
  Te  Te54  1  0.40773432  0.89530267  0.84055799  1
  Te  Te55  1  0.59226568  0.10469733  0.84055799  1
  Te  Te56  1  0.09573169  0.09573169  0.90426831  1
  Te  Te57  1  0.59573169  0.40426831  0.59573169  1
  Te  Te58  1  0.34055799  0.60469733  0.09226568  1
  Te  Te59  1  0.40426831  0.59573169  0.59573169  1
  Te  Te60  1  0.09226568  0.65944201  0.39530267  1
  Te  Te61  1  0.90773432  0.34055799  0.39530267  1
  Te  Te62  1  0.89530267  0.15944201  0.59226568  1
  Te  Te63  1  0.59573169  0.59573169  0.40426831  1
  Te  Te64  1  0.10469733  0.15944201  0.40773432  1
  Te  Te65  1  0.90426831  0.90426831  0.90426831  1
  Te  Te66  1  0.09573169  0.90426831  0.09573169  1
  Te  Te67  1  0.40773432  0.10469733  0.15944201  1
  Te  Te68  1  0.90426831  0.09573169  0.09573169  1
  Te  Te69  1  0.65944201  0.60469733  0.90773432  1
  Te  Te70  1  0.39530267  0.90773432  0.34055799  1
  Te  Te71  1  0.90773432  0.65944201  0.60469733  1
