# generated using pymatgen
data_Pr6Si4S17
_symmetry_space_group_name_H-M   'P 1'
_cell_length_a   9.01055369
_cell_length_b   10.05166622
_cell_length_c   14.34045731
_cell_angle_alpha   81.98287077
_cell_angle_beta   86.88125003
_cell_angle_gamma   89.40549088
_symmetry_Int_Tables_number   1
_chemical_formula_structural   Pr6Si4S17
_chemical_formula_sum   'Pr12 Si8 S34'
_cell_volume   1284.22647349
_cell_formula_units_Z   2
loop_
 _symmetry_equiv_pos_site_id
 _symmetry_equiv_pos_as_xyz
  1  'x, y, z'
loop_
 _atom_site_type_symbol
 _atom_site_label
 _atom_site_symmetry_multiplicity
 _atom_site_fract_x
 _atom_site_fract_y
 _atom_site_fract_z
 _atom_site_occupancy
  Pr  Pr0  1  0.66865514  0.58822678  0.65770342  1
  Pr  Pr1  1  0.10650135  0.38521976  0.81691312  1
  Pr  Pr2  1  0.55226841  0.26113647  0.99884707  1
  Pr  Pr3  1  0.62949378  0.93378687  0.32510762  1
  Pr  Pr4  1  0.89349865  0.61478024  0.18308688  1
  Pr  Pr5  1  0.97961733  0.23120281  0.54046672  1
  Pr  Pr6  1  0.08344410  0.08010541  0.16600190  1
  Pr  Pr7  1  0.91655590  0.91989459  0.83399810  1
  Pr  Pr8  1  0.37050622  0.06621313  0.67489238  1
  Pr  Pr9  1  0.44773159  0.73886353  0.00115293  1
  Pr  Pr10  1  0.33134486  0.41177322  0.34229658  1
  Pr  Pr11  1  0.02038267  0.76879719  0.45953328  1
  Si  Si12  1  0.76948449  0.56218734  0.90141436  1
  Si  Si13  1  0.75070798  0.50008573  0.41603670  1
  Si  Si14  1  0.72571151  0.94151072  0.60559739  1
  Si  Si15  1  0.25137797  0.06021700  0.92310327  1
  Si  Si16  1  0.74862203  0.93978300  0.07689673  1
  Si  Si17  1  0.27428849  0.05848928  0.39440261  1
  Si  Si18  1  0.24929202  0.49991427  0.58396330  1
  Si  Si19  1  0.23051551  0.43781266  0.09858564  1
  S  S20  1  0.74217673  0.11345487  0.14811939  1
  S  S21  1  0.33997046  0.00146182  0.05633647  1
  S  S22  1  0.99010399  0.62735940  0.88608024  1
  S  S23  1  0.70395001  0.69097168  0.45861483  1
  S  S24  1  0.29978094  0.91234068  0.30355623  1
  S  S25  1  0.70021906  0.08765932  0.69644377  1
  S  S26  1  0.24684311  0.61269110  0.16673827  1
  S  S27  1  0.01589637  0.49379143  0.62290680  1
  S  S28  1  0.30785389  0.63293862  0.46209756  1
  S  S29  1  0.81480356  0.01891007  0.46825849  1
  S  S30  1  0.64501559  0.47005477  0.29402092  1
  S  S31  1  0.10722337  0.20029356  0.34583618  1
  S  S32  1  0.04275672  0.14762663  0.95208210  1
  S  S33  1  0.25782327  0.88654513  0.85188061  1
  S  S34  1  0.93105754  0.85607595  0.27823237  1
  S  S35  1  0.38343822  0.21150930  0.83931374  1
  S  S36  1  0.95724328  0.85237337  0.04791790  1
  S  S37  1  0.63388178  0.71636072  0.83392202  1
  S  S38  1  0.66002954  0.99853818  0.94366353  1
  S  S39  1  0.75315689  0.38730890  0.83326173  1
  S  S40  1  0.89277663  0.79970644  0.65416382  1
  S  S41  1  0.29604999  0.30902832  0.54138517  1
  S  S42  1  0.35498441  0.52994523  0.70597908  1
  S  S43  1  0.18519644  0.98108993  0.53174151  1
  S  S44  1  0.69214611  0.36706138  0.53790244  1
  S  S45  1  0.61656178  0.78849070  0.16068626  1
  S  S46  1  0.98410363  0.50620857  0.37709320  1
  S  S47  1  0.06894246  0.14392405  0.72176763  1
  S  S48  1  0.51886171  0.84664045  0.60322449  1
  S  S49  1  0.36611822  0.28363928  0.16607798  1
  S  S50  1  0.67919029  0.51880188  0.04278309  1
  S  S51  1  0.32080971  0.48119812  0.95721691  1
  S  S52  1  0.00989601  0.37264060  0.11391976  1
  S  S53  1  0.48113829  0.15335955  0.39677551  1
