# generated using pymatgen
data_K4WO5
_symmetry_space_group_name_H-M   'P 1'
_cell_length_a   6.26725952
_cell_length_b   10.20826622
_cell_length_c   16.89991286
_cell_angle_alpha   94.31288593
_cell_angle_beta   92.52781143
_cell_angle_gamma   96.15798509
_symmetry_Int_Tables_number   1
_chemical_formula_structural   K4WO5
_chemical_formula_sum   'K24 W6 O30'
_cell_volume   1070.45207888
_cell_formula_units_Z   6
loop_
 _symmetry_equiv_pos_site_id
 _symmetry_equiv_pos_as_xyz
  1  'x, y, z'
loop_
 _atom_site_type_symbol
 _atom_site_label
 _atom_site_symmetry_multiplicity
 _atom_site_fract_x
 _atom_site_fract_y
 _atom_site_fract_z
 _atom_site_occupancy
  K  K0  1  0.44240832  0.41996590  0.08336365  1
  K  K1  1  0.55759168  0.58003410  0.91663635  1
  K  K2  1  0.72962200  0.53718744  0.55778586  1
  K  K3  1  0.27037800  0.46281256  0.44221414  1
  K  K4  1  0.95851296  0.29794191  0.99626766  1
  K  K5  1  0.04148704  0.70205809  0.00373234  1
  K  K6  1  0.50965657  0.01042594  0.67836105  1
  K  K7  1  0.49034343  0.98957406  0.32163895  1
  K  K8  1  0.42334426  0.80780677  0.49617515  1
  K  K9  1  0.57665574  0.19219323  0.50382485  1
  K  K10  1  0.94633911  0.49936717  0.17882728  1
  K  K11  1  0.05366089  0.50063283  0.82117272  1
  K  K12  1  0.06854642  0.08913329  0.40592548  1
  K  K13  1  0.93145358  0.91086671  0.59407452  1
  K  K14  1  0.23196110  0.59453164  0.64779424  1
  K  K15  1  0.76803890  0.40546836  0.35220576  1
  K  K16  1  0.94415984  0.16283582  0.78996590  1
  K  K17  1  0.05584016  0.83716418  0.21003410  1
  K  K18  1  0.74603807  0.95454929  0.92832782  1
  K  K19  1  0.25396193  0.04545071  0.07167218  1
  K  K20  1  0.77995244  0.11362630  0.15374605  1
  K  K21  1  0.22004756  0.88637370  0.84625395  1
  K  K22  1  0.42271674  0.64954857  0.28131219  1
  K  K23  1  0.57728326  0.35045143  0.71868781  1
  W  W24  1  0.71735201  0.73286762  0.74900882  1
  W  W25  1  0.28264799  0.26713238  0.25099118  1
  W  W26  1  0.10115641  0.25707489  0.59719545  1
  W  W27  1  0.89884359  0.74292511  0.40280455  1
  W  W28  1  0.56323433  0.77471967  0.09221190  1
  W  W29  1  0.43676567  0.22528033  0.90778810  1
  O  O30  1  0.15914585  0.84082476  0.37517713  1
  O  O31  1  0.84085415  0.15917524  0.62482287  1
  O  O32  1  0.31517239  0.66228413  0.11960154  1
  O  O33  1  0.68482761  0.33771587  0.88039846  1
  O  O34  1  0.63887048  0.63456076  0.42392186  1
  O  O35  1  0.36112952  0.36543924  0.57607814  1
  O  O36  1  0.42759045  0.81904545  0.00082982  1
  O  O37  1  0.57240955  0.18095455  0.99917018  1
  O  O38  1  0.71278763  0.62695450  0.08087576  1
  O  O39  1  0.28721237  0.37304550  0.91912424  1
  O  O40  1  0.58874469  0.75902619  0.64579819  1
  O  O41  1  0.41125531  0.24097381  0.35420181  1
  O  O42  1  0.85825175  0.71800638  0.85102183  1
  O  O43  1  0.14174825  0.28199362  0.14897817  1
  O  O44  1  0.82502718  0.88248451  0.07285192  1
  O  O45  1  0.17497282  0.11751549  0.92714808  1
  O  O46  1  0.12849598  0.34024338  0.69888475  1
  O  O47  1  0.87150402  0.65975662  0.30111525  1
  O  O48  1  0.84201127  0.59121407  0.70592362  1
  O  O49  1  0.15798873  0.40878593  0.29407638  1
  O  O50  1  0.04109270  0.67921785  0.48823968  1
  O  O51  1  0.95890730  0.32078215  0.51176032  1
  O  O52  1  0.77160310  0.89611057  0.42665791  1
  O  O53  1  0.22839690  0.10388943  0.57334209  1
  O  O54  1  0.85355760  0.90459479  0.75225025  1
  O  O55  1  0.14644240  0.09540521  0.24774975  1
  O  O56  1  0.46079404  0.11867795  0.81553555  1
  O  O57  1  0.53920596  0.88132205  0.18446445  1
  O  O58  1  0.44865040  0.69254236  0.78747813  1
  O  O59  1  0.55134960  0.30745764  0.21252187  1
