# generated using pymatgen
data_Rb2BaNb2Se11
_symmetry_space_group_name_H-M   'P 1'
_cell_length_a   14.04128630
_cell_length_b   7.96267352
_cell_length_c   17.29234146
_cell_angle_alpha   83.39818674
_cell_angle_beta   90.00000000
_cell_angle_gamma   90.00000000
_symmetry_Int_Tables_number   1
_chemical_formula_structural   Rb2BaNb2Se11
_chemical_formula_sum   'Rb8 Ba4 Nb8 Se44'
_cell_volume   1920.57055237
_cell_formula_units_Z   4
loop_
 _symmetry_equiv_pos_site_id
 _symmetry_equiv_pos_as_xyz
  1  'x, y, z'
loop_
 _atom_site_type_symbol
 _atom_site_label
 _atom_site_symmetry_multiplicity
 _atom_site_fract_x
 _atom_site_fract_y
 _atom_site_fract_z
 _atom_site_occupancy
  Rb  Rb0  1  0.54163128  0.26395656  0.91565986  1
  Rb  Rb1  1  0.45836872  0.73604344  0.08434014  1
  Rb  Rb2  1  0.95836872  0.26395656  0.41565986  1
  Rb  Rb3  1  0.88244807  0.29456633  0.73274372  1
  Rb  Rb4  1  0.04163128  0.73604344  0.58434014  1
  Rb  Rb5  1  0.38244807  0.70543367  0.76725628  1
  Rb  Rb6  1  0.61755193  0.29456633  0.23274372  1
  Rb  Rb7  1  0.11755193  0.70543367  0.26725628  1
  Ba  Ba8  1  0.87885610  0.25042560  0.03207054  1
  Ba  Ba9  1  0.62114390  0.25042560  0.53207054  1
  Ba  Ba10  1  0.37885610  0.74957440  0.46792946  1
  Ba  Ba11  1  0.12114390  0.74957440  0.96792946  1
  Nb  Nb12  1  0.32767384  0.14396612  0.19524059  1
  Nb  Nb13  1  0.17232616  0.14396612  0.69524059  1
  Nb  Nb14  1  0.71619830  0.72152866  0.60458758  1
  Nb  Nb15  1  0.67232616  0.85603388  0.80475941  1
  Nb  Nb16  1  0.21619830  0.27847134  0.89541242  1
  Nb  Nb17  1  0.78380170  0.72152866  0.10458758  1
  Nb  Nb18  1  0.82767384  0.85603388  0.30475941  1
  Nb  Nb19  1  0.28380170  0.27847134  0.39541242  1
  Se  Se20  1  0.16147032  0.14527624  0.30435149  1
  Se  Se21  1  0.12285302  0.15951712  0.02475593  1
  Se  Se22  1  0.28364960  0.96041322  0.61238350  1
  Se  Se23  1  0.87714698  0.84048288  0.97524407  1
  Se  Se24  1  0.19214389  0.49484264  0.44476910  1
  Se  Se25  1  0.82417973  0.55823281  0.25069422  1
  Se  Se26  1  0.44773385  0.20449366  0.10172499  1
  Se  Se27  1  0.54396587  0.59849259  0.60545151  1
  Se  Se28  1  0.78364960  0.03958678  0.88761650  1
  Se  Se29  1  0.21635040  0.96041322  0.11238350  1
  Se  Se30  1  0.29472413  0.38263020  0.65576647  1
  Se  Se31  1  0.57319251  0.92508651  0.67588794  1
  Se  Se32  1  0.81425607  0.99150087  0.56645517  1
  Se  Se33  1  0.45603413  0.40150741  0.39454849  1
  Se  Se34  1  0.04396587  0.40150741  0.89454849  1
  Se  Se35  1  0.70527587  0.61736980  0.34423353  1
  Se  Se36  1  0.62285302  0.84048288  0.47524407  1
  Se  Se37  1  0.63580574  0.15995615  0.73507875  1
  Se  Se38  1  0.66147032  0.85472376  0.19564851  1
  Se  Se39  1  0.05226615  0.20449366  0.60172499  1
  Se  Se40  1  0.83852968  0.85472376  0.69564851  1
  Se  Se41  1  0.20527587  0.38263020  0.15576647  1
  Se  Se42  1  0.30785611  0.49484264  0.94476910  1
  Se  Se43  1  0.13580574  0.84004385  0.76492125  1
  Se  Se44  1  0.86419426  0.15995615  0.23507875  1
  Se  Se45  1  0.42680749  0.07491349  0.32411206  1
  Se  Se46  1  0.94773385  0.79550634  0.39827501  1
  Se  Se47  1  0.36419426  0.84004385  0.26492125  1
  Se  Se48  1  0.33852968  0.14527624  0.80435149  1
  Se  Se49  1  0.95603413  0.59849259  0.10545151  1
  Se  Se50  1  0.32417973  0.44176719  0.24930578  1
  Se  Se51  1  0.17582027  0.44176719  0.74930578  1
  Se  Se52  1  0.92680749  0.92508651  0.17588794  1
  Se  Se53  1  0.55226615  0.79550634  0.89827501  1
  Se  Se54  1  0.79472413  0.61736980  0.84423353  1
  Se  Se55  1  0.67582027  0.55823281  0.75069422  1
  Se  Se56  1  0.18574393  0.00849913  0.43354483  1
  Se  Se57  1  0.71635040  0.03958678  0.38761650  1
  Se  Se58  1  0.68574393  0.99150087  0.06645517  1
  Se  Se59  1  0.80785611  0.50515736  0.55523090  1
  Se  Se60  1  0.07319251  0.07491349  0.82411206  1
  Se  Se61  1  0.31425607  0.00849913  0.93354483  1
  Se  Se62  1  0.69214389  0.50515736  0.05523090  1
  Se  Se63  1  0.37714698  0.15951712  0.52475593  1
