# generated using pymatgen
data_Cs3Ta2S11
_symmetry_space_group_name_H-M   'P 1'
_cell_length_a   8.24919814
_cell_length_b   12.20509152
_cell_length_c   19.90150633
_cell_angle_alpha   77.23790147
_cell_angle_beta   90.00000000
_cell_angle_gamma   90.00000000
_symmetry_Int_Tables_number   1
_chemical_formula_structural   Cs3Ta2S11
_chemical_formula_sum   'Cs12 Ta8 S44'
_cell_volume   1954.22710413
_cell_formula_units_Z   4
loop_
 _symmetry_equiv_pos_site_id
 _symmetry_equiv_pos_as_xyz
  1  'x, y, z'
loop_
 _atom_site_type_symbol
 _atom_site_label
 _atom_site_symmetry_multiplicity
 _atom_site_fract_x
 _atom_site_fract_y
 _atom_site_fract_z
 _atom_site_occupancy
  Cs  Cs0  1  0.84137410  0.96186433  0.64136951  1
  Cs  Cs1  1  0.82013356  0.50397850  0.66325093  1
  Cs  Cs2  1  0.67986644  0.50397850  0.16325093  1
  Cs  Cs3  1  0.68804274  0.73027152  0.38210734  1
  Cs  Cs4  1  0.17986644  0.49602150  0.33674907  1
  Cs  Cs5  1  0.65862590  0.96186433  0.14136951  1
  Cs  Cs6  1  0.32013356  0.49602150  0.83674907  1
  Cs  Cs7  1  0.18804274  0.26972848  0.11789266  1
  Cs  Cs8  1  0.81195726  0.73027152  0.88210734  1
  Cs  Cs9  1  0.15862590  0.03813567  0.35863049  1
  Cs  Cs10  1  0.31195726  0.26972848  0.61789266  1
  Cs  Cs11  1  0.34137410  0.03813567  0.85863049  1
  Ta  Ta12  1  0.14182716  0.78950369  0.15665529  1
  Ta  Ta13  1  0.77600512  0.30756650  0.49367235  1
  Ta  Ta14  1  0.27600512  0.69243350  0.00632765  1
  Ta  Ta15  1  0.22399488  0.69243350  0.50632765  1
  Ta  Ta16  1  0.35817284  0.78950369  0.65665529  1
  Ta  Ta17  1  0.64182716  0.21049631  0.34334471  1
  Ta  Ta18  1  0.72399488  0.30756650  0.99367235  1
  Ta  Ta19  1  0.85817284  0.21049631  0.84334471  1
  S  S20  1  0.47552279  0.58391289  0.54416708  1
  S  S21  1  0.94881114  0.74605917  0.53096184  1
  S  S22  1  0.72736163  0.39049350  0.84452892  1
  S  S23  1  0.12258529  0.49857513  0.51282028  1
  S  S24  1  0.42469564  0.98001771  0.59222970  1
  S  S25  1  0.74441718  0.24999867  0.60690769  1
  S  S26  1  0.02447721  0.58391289  0.04416708  1
  S  S27  1  0.11273757  0.70720133  0.71483799  1
  S  S28  1  0.98977816  0.24767953  0.95234421  1
  S  S29  1  0.37741471  0.49857513  0.01282028  1
  S  S30  1  0.48977816  0.75232047  0.54765579  1
  S  S31  1  0.93453824  0.73494843  0.22788689  1
  S  S32  1  0.06546176  0.26505157  0.77211311  1
  S  S33  1  0.01022184  0.75232047  0.04765579  1
  S  S34  1  0.38726243  0.70720133  0.21483799  1
  S  S35  1  0.62258529  0.50142487  0.98717972  1
  S  S36  1  0.92469564  0.01998229  0.90777030  1
  S  S37  1  0.55118886  0.74605917  0.03096184  1
  S  S38  1  0.43453824  0.26505157  0.27211311  1
  S  S39  1  0.71758924  0.02785654  0.32064165  1
  S  S40  1  0.51022184  0.24767953  0.45234421  1
  S  S41  1  0.21758924  0.97214346  0.17935835  1
  S  S42  1  0.88726243  0.29279867  0.28516201  1
  S  S43  1  0.61273757  0.29279867  0.78516201  1
  S  S44  1  0.22736163  0.60950650  0.65547108  1
  S  S45  1  0.12833785  0.86201840  0.54002928  1
  S  S46  1  0.56546176  0.73494843  0.72788689  1
  S  S47  1  0.07530436  0.98001771  0.09222970  1
  S  S48  1  0.44881114  0.25394083  0.96903816  1
  S  S49  1  0.87166215  0.13798160  0.45997072  1
  S  S50  1  0.87741471  0.50142487  0.48717972  1
  S  S51  1  0.97552279  0.41608711  0.95583292  1
  S  S52  1  0.28241076  0.97214346  0.67935835  1
  S  S53  1  0.27263837  0.60950650  0.15547108  1
  S  S54  1  0.52447721  0.41608711  0.45583292  1
  S  S55  1  0.75558282  0.24999867  0.10690769  1
  S  S56  1  0.05118886  0.25394083  0.46903816  1
  S  S57  1  0.25558282  0.75000133  0.39309231  1
  S  S58  1  0.62833785  0.13798160  0.95997072  1
  S  S59  1  0.37166215  0.86201840  0.04002928  1
  S  S60  1  0.77263837  0.39049350  0.34452892  1
  S  S61  1  0.57530436  0.01998229  0.40777030  1
  S  S62  1  0.24441718  0.75000133  0.89309231  1
  S  S63  1  0.78241076  0.02785654  0.82064165  1
