# generated using pymatgen
data_PNCl2
_symmetry_space_group_name_H-M   'P 1'
_cell_length_a   5.99102537
_cell_length_b   10.91551137
_cell_length_c   10.91551137
_cell_angle_alpha   90.00000000
_cell_angle_beta   90.00000000
_cell_angle_gamma   90.00000000
_symmetry_Int_Tables_number   1
_chemical_formula_structural   PNCl2
_chemical_formula_sum   'P8 N8 Cl16'
_cell_volume   713.82101831
_cell_formula_units_Z   8
loop_
 _symmetry_equiv_pos_site_id
 _symmetry_equiv_pos_as_xyz
  1  'x, y, z'
loop_
 _atom_site_type_symbol
 _atom_site_label
 _atom_site_symmetry_multiplicity
 _atom_site_fract_x
 _atom_site_fract_y
 _atom_site_fract_z
 _atom_site_occupancy
  P  P0  1  0.30863680  0.57565855  0.79394475  1
  P  P1  1  0.80863680  0.29394475  0.42434145  1
  P  P2  1  0.69136320  0.42434145  0.20605525  1
  P  P3  1  0.80863680  0.20605525  0.07565855  1
  P  P4  1  0.69136320  0.07565855  0.29394475  1
  P  P5  1  0.30863680  0.92434145  0.70605525  1
  P  P6  1  0.19136320  0.79394475  0.92434145  1
  P  P7  1  0.19136320  0.70605525  0.57565855  1
  N  N8  1  0.67101557  0.38572186  0.34385784  1
  N  N9  1  0.32898443  0.61427814  0.65614216  1
  N  N10  1  0.67101557  0.11427814  0.15614216  1
  N  N11  1  0.82898443  0.15614216  0.38572186  1
  N  N12  1  0.82898443  0.34385784  0.11427814  1
  N  N13  1  0.32898443  0.88572186  0.84385784  1
  N  N14  1  0.17101557  0.65614216  0.88572186  1
  N  N15  1  0.17101557  0.84385784  0.61427814  1
  Cl  Cl16  1  0.62097102  0.95087598  0.64731754  1
  Cl  Cl17  1  0.17476703  0.40813673  0.80379148  1
  Cl  Cl18  1  0.62097102  0.54912402  0.85268246  1
  Cl  Cl19  1  0.82523297  0.90813673  0.30379148  1
  Cl  Cl20  1  0.87902898  0.85268246  0.95087598  1
  Cl  Cl21  1  0.32523297  0.80379148  0.09186327  1
  Cl  Cl22  1  0.17476703  0.09186327  0.69620852  1
  Cl  Cl23  1  0.12097102  0.14731754  0.04912402  1
  Cl  Cl24  1  0.67476703  0.30379148  0.59186327  1
  Cl  Cl25  1  0.37902898  0.04912402  0.35268246  1
  Cl  Cl26  1  0.67476703  0.19620852  0.90813673  1
  Cl  Cl27  1  0.82523297  0.59186327  0.19620852  1
  Cl  Cl28  1  0.32523297  0.69620852  0.40813673  1
  Cl  Cl29  1  0.12097102  0.35268246  0.45087598  1
  Cl  Cl30  1  0.87902898  0.64731754  0.54912402  1
  Cl  Cl31  1  0.37902898  0.45087598  0.14731754  1
