# generated using pymatgen
data_Ag3AsS3
_symmetry_space_group_name_H-M   'P 1'
_cell_length_a   6.79871743
_cell_length_b   6.79871743
_cell_length_c   16.97842039
_cell_angle_alpha   72.37011292
_cell_angle_beta   72.37011292
_cell_angle_gamma   55.71767178
_symmetry_Int_Tables_number   1
_chemical_formula_structural   Ag3AsS3
_chemical_formula_sum   'Ag12 As4 S12'
_cell_volume   609.21065518
_cell_formula_units_Z   4
loop_
 _symmetry_equiv_pos_site_id
 _symmetry_equiv_pos_as_xyz
  1  'x, y, z'
loop_
 _atom_site_type_symbol
 _atom_site_label
 _atom_site_symmetry_multiplicity
 _atom_site_fract_x
 _atom_site_fract_y
 _atom_site_fract_z
 _atom_site_occupancy
  Ag  Ag0  1  0.89814058  0.83355002  0.21477365  1
  Ag  Ag1  1  0.16644998  0.10185942  0.28522635  1
  Ag  Ag2  1  0.68372047  0.59680542  0.13409335  1
  Ag  Ag3  1  0.31627953  0.40319458  0.86590665  1
  Ag  Ag4  1  0.01566939  0.85320851  0.93848258  1
  Ag  Ag5  1  0.85320851  0.01566939  0.43848258  1
  Ag  Ag6  1  0.10185942  0.16644998  0.78522635  1
  Ag  Ag7  1  0.14679149  0.98433061  0.56151742  1
  Ag  Ag8  1  0.40319458  0.31627953  0.36590665  1
  Ag  Ag9  1  0.98433061  0.14679149  0.06151742  1
  Ag  Ag10  1  0.83355002  0.89814058  0.71477365  1
  Ag  Ag11  1  0.59680542  0.68372047  0.63409335  1
  As  As12  1  0.40998643  0.29811984  0.07243357  1
  As  As13  1  0.70188016  0.59001357  0.42756643  1
  As  As14  1  0.29811984  0.40998643  0.57243357  1
  As  As15  1  0.59001357  0.70188016  0.92756643  1
  S  S16  1  0.35017250  0.96138679  0.41349770  1
  S  S17  1  0.56936740  0.28270110  0.17477064  1
  S  S18  1  0.98182974  0.69276914  0.35932295  1
  S  S19  1  0.30723086  0.01817026  0.14067705  1
  S  S20  1  0.71729890  0.43063260  0.32522936  1
  S  S21  1  0.01817026  0.30723086  0.64067705  1
  S  S22  1  0.69276914  0.98182974  0.85932295  1
  S  S23  1  0.43063260  0.71729890  0.82522936  1
  S  S24  1  0.96138679  0.35017250  0.91349770  1
  S  S25  1  0.03861321  0.64982750  0.08650230  1
  S  S26  1  0.64982750  0.03861321  0.58650230  1
  S  S27  1  0.28270110  0.56936740  0.67477064  1
