# generated using pymatgen
data_Li3VO4
_symmetry_space_group_name_H-M   'P 1'
_cell_length_a   5.04801979
_cell_length_b   6.28771945
_cell_length_c   10.80243265
_cell_angle_alpha   90.00000000
_cell_angle_beta   90.00000000
_cell_angle_gamma   90.00000000
_symmetry_Int_Tables_number   1
_chemical_formula_structural   Li3VO4
_chemical_formula_sum   'Li12 V4 O16'
_cell_volume   342.87496156
_cell_formula_units_Z   4
loop_
 _symmetry_equiv_pos_site_id
 _symmetry_equiv_pos_as_xyz
  1  'x, y, z'
loop_
 _atom_site_type_symbol
 _atom_site_label
 _atom_site_symmetry_multiplicity
 _atom_site_fract_x
 _atom_site_fract_y
 _atom_site_fract_z
 _atom_site_occupancy
  Li  Li0  1  0.18689243  0.99598897  0.66759071  1
  Li  Li1  1  0.81310757  0.49598897  0.33240929  1
  Li  Li2  1  0.31310757  0.99598897  0.16759071  1
  Li  Li3  1  0.81310757  0.00401103  0.33240929  1
  Li  Li4  1  0.30962511  0.75000000  0.92233087  1
  Li  Li5  1  0.19037489  0.75000000  0.42233087  1
  Li  Li6  1  0.68689243  0.00401103  0.83240929  1
  Li  Li7  1  0.80962511  0.25000000  0.57766913  1
  Li  Li8  1  0.68689243  0.49598897  0.83240929  1
  Li  Li9  1  0.18689243  0.50401103  0.66759071  1
  Li  Li10  1  0.31310757  0.50401103  0.16759071  1
  Li  Li11  1  0.69037489  0.25000000  0.07766913  1
  V  V12  1  0.18237977  0.25000000  0.91450408  1
  V  V13  1  0.81762023  0.75000000  0.08549592  1
  V  V14  1  0.68237977  0.75000000  0.58549592  1
  V  V15  1  0.31762023  0.25000000  0.41450408  1
  O  O16  1  0.70727065  0.75000000  0.93512218  1
  O  O17  1  0.34033636  0.75000000  0.58691446  1
  O  O18  1  0.20645477  0.47375271  0.33859862  1
  O  O19  1  0.20645477  0.02624729  0.33859862  1
  O  O20  1  0.20727065  0.25000000  0.56487782  1
  O  O21  1  0.70645477  0.52624729  0.16140138  1
  O  O22  1  0.79354523  0.97375271  0.66140138  1
  O  O23  1  0.70645477  0.97375271  0.16140138  1
  O  O24  1  0.29272935  0.25000000  0.06487782  1
  O  O25  1  0.79272935  0.75000000  0.43512218  1
  O  O26  1  0.29354523  0.02624729  0.83859862  1
  O  O27  1  0.79354523  0.52624729  0.66140138  1
  O  O28  1  0.65966364  0.25000000  0.41308554  1
  O  O29  1  0.15966364  0.75000000  0.08691446  1
  O  O30  1  0.84033636  0.25000000  0.91308554  1
  O  O31  1  0.29354523  0.47375271  0.83859862  1
