# generated using pymatgen
data_Na2AlNiF7
_symmetry_space_group_name_H-M   'P 1'
_cell_length_a   7.10496479
_cell_length_b   7.10490826
_cell_length_c   7.10804674
_cell_angle_alpha   121.08740055
_cell_angle_beta   118.25432195
_cell_angle_gamma   90.56337060
_symmetry_Int_Tables_number   1
_chemical_formula_structural   Na2AlNiF7
_chemical_formula_sum   'Na4 Al2 Ni2 F14'
_cell_volume   254.83196955
_cell_formula_units_Z   2
loop_
 _symmetry_equiv_pos_site_id
 _symmetry_equiv_pos_as_xyz
  1  'x, y, z'
loop_
 _atom_site_type_symbol
 _atom_site_label
 _atom_site_symmetry_multiplicity
 _atom_site_fract_x
 _atom_site_fract_y
 _atom_site_fract_z
 _atom_site_occupancy
  Na  Na0  1  0.50000000  0.50000000  0.50000000  1
  Na  Na1  1  0.50000000  -0.00000000  -0.00000000  1
  Na  Na2  1  -0.00000000  -0.00000000  -0.00000000  1
  Na  Na3  1  0.50000000  0.50000000  -0.00000000  1
  Al  Al4  1  0.50000000  -0.00000000  0.50000000  1
  Al  Al5  1  -0.00000000  0.50000000  0.50000000  1
  Ni  Ni6  1  -0.00000000  -0.00000000  0.50000000  1
  Ni  Ni7  1  -0.00000000  0.50000000  -0.00000000  1
  F  F8  1  0.67700173  0.92386962  0.37576957  1
  F  F9  1  0.04785442  0.42449478  0.24712590  1
  F  F10  1  0.87432960  0.75009485  0.12442434  1
  F  F11  1  0.69312605  0.41564598  0.27777373  1
  F  F12  1  0.67736631  0.30073026  0.75287366  1
  F  F13  1  0.63787361  0.91535163  0.72222829  1
  F  F14  1  0.12567040  0.24990515  0.87557566  1
  F  F15  1  0.30687395  0.58435402  0.72222627  1
  F  F16  1  0.36212639  0.08464837  0.27777171  1
  F  F17  1  0.32263369  0.69926974  0.24712634  1
  F  F18  1  0.04809894  0.80123547  0.62422830  1
  F  F19  1  0.32299827  0.07613038  0.62423043  1
  F  F20  1  0.95214558  0.57550522  0.75287410  1
  F  F21  1  0.95190106  0.19876453  0.37577170  1
