# generated using pymatgen
data_CsGaSe3
_symmetry_space_group_name_H-M   'P 1'
_cell_length_a   13.15157149
_cell_length_b   6.77309737
_cell_length_c   7.81485175
_cell_angle_alpha   73.89929473
_cell_angle_beta   90.00000000
_cell_angle_gamma   90.00000000
_symmetry_Int_Tables_number   1
_chemical_formula_structural   CsGaSe3
_chemical_formula_sum   'Cs4 Ga4 Se12'
_cell_volume   668.81767498
_cell_formula_units_Z   4
loop_
 _symmetry_equiv_pos_site_id
 _symmetry_equiv_pos_as_xyz
  1  'x, y, z'
loop_
 _atom_site_type_symbol
 _atom_site_label
 _atom_site_symmetry_multiplicity
 _atom_site_fract_x
 _atom_site_fract_y
 _atom_site_fract_z
 _atom_site_occupancy
  Cs  Cs0  1  0.58065473  0.78514821  0.74718787  1
  Cs  Cs1  1  0.08065473  0.71485179  0.25281213  1
  Cs  Cs2  1  0.41934527  0.21485179  0.25281213  1
  Cs  Cs3  1  0.91934527  0.28514821  0.74718787  1
  Ga  Ga4  1  0.72786776  0.85546437  0.18304018  1
  Ga  Ga5  1  0.22786776  0.64453563  0.81695982  1
  Ga  Ga6  1  0.27213224  0.14453563  0.81695982  1
  Ga  Ga7  1  0.77213224  0.35546437  0.18304018  1
  Se  Se8  1  0.92202687  0.15252706  0.29326408  1
  Se  Se9  1  0.42202687  0.34747294  0.70673592  1
  Se  Se10  1  0.07797313  0.84747294  0.70673592  1
  Se  Se11  1  0.57797313  0.65252706  0.29326408  1
  Se  Se12  1  0.32662898  0.81430745  -0.00528737  1
  Se  Se13  1  0.82662898  0.68569255  0.00528737  1
  Se  Se14  1  0.67337102  0.18569255  0.00528737  1
  Se  Se15  1  0.17337102  0.31430745  -0.00528737  1
  Se  Se16  1  0.82460272  0.86158699  0.44654426  1
  Se  Se17  1  0.32460272  0.63841301  0.55345574  1
  Se  Se18  1  0.17539728  0.13841301  0.55345574  1
  Se  Se19  1  0.67539728  0.36158699  0.44654426  1
