# generated using pymatgen
data_Ba2Si3O8
_symmetry_space_group_name_H-M   'P 1'
_cell_length_a   4.69057085
_cell_length_b   12.47748592
_cell_length_c   13.99986574
_cell_angle_alpha   93.51692321
_cell_angle_beta   90.00000000
_cell_angle_gamma   90.00000000
_symmetry_Int_Tables_number   1
_chemical_formula_structural   Ba2Si3O8
_chemical_formula_sum   'Ba8 Si12 O32'
_cell_volume   817.82049829
_cell_formula_units_Z   4
loop_
 _symmetry_equiv_pos_site_id
 _symmetry_equiv_pos_as_xyz
  1  'x, y, z'
loop_
 _atom_site_type_symbol
 _atom_site_label
 _atom_site_symmetry_multiplicity
 _atom_site_fract_x
 _atom_site_fract_y
 _atom_site_fract_z
 _atom_site_occupancy
  Ba  Ba0  1  0.29247708  0.85547215  0.03074087  1
  Ba  Ba1  1  0.26388817  0.41791715  0.38842282  1
  Ba  Ba2  1  0.30576197  0.41727015  0.88799477  1
  Ba  Ba3  1  0.76388817  0.58208285  0.61157718  1
  Ba  Ba4  1  0.30606230  0.85680884  0.53343543  1
  Ba  Ba5  1  0.80576197  0.58272985  0.11200523  1
  Ba  Ba6  1  0.79247708  0.14452785  0.96925913  1
  Ba  Ba7  1  0.80606230  0.14319116  0.46656457  1
  Si  Si8  1  0.23941675  0.34957508  0.11093272  1
  Si  Si9  1  0.23186111  0.72508599  0.77643457  1
  Si  Si10  1  0.73186111  0.27491401  0.22356543  1
  Si  Si11  1  0.33102946  0.72323572  0.27595756  1
  Si  Si12  1  0.23442121  0.97627797  0.81253142  1
  Si  Si13  1  0.73941675  0.65042492  0.88906728  1
  Si  Si14  1  0.23605357  0.97041417  0.31190318  1
  Si  Si15  1  0.83224287  0.65032336  0.38894371  1
  Si  Si16  1  0.73605357  0.02958583  0.68809682  1
  Si  Si17  1  0.73442121  0.02372203  0.18746858  1
  Si  Si18  1  0.33224287  0.34967664  0.61105629  1
  Si  Si19  1  0.83102946  0.27676428  0.72404244  1
  O  O20  1  0.80644314  0.52966751  0.91465466  1
  O  O21  1  0.81124944  0.28703871  0.33323285  1
  O  O22  1  0.40512879  0.64930872  0.84880766  1
  O  O23  1  0.27259399  0.84223666  0.32776080  1
  O  O24  1  0.16253517  0.31055260  0.70682675  1
  O  O25  1  0.81419899  0.96435043  0.08828853  1
  O  O26  1  0.80872792  0.73483758  0.47908930  1
  O  O27  1  0.28321588  0.26547209  0.02145555  1
  O  O28  1  0.65980932  0.35909091  0.65701528  1
  O  O29  1  0.75419164  0.53071829  0.41524583  1
  O  O30  1  0.90359178  0.99471167  0.28474873  1
  O  O31  1  0.77259399  0.15776334  0.67223920  1
  O  O32  1  0.81683974  0.96595539  0.59074730  1
  O  O33  1  0.90298733  0.00346122  0.78641334  1
  O  O34  1  0.78321588  0.73452791  0.97854445  1
  O  O35  1  0.66253517  0.68944740  0.29317325  1
  O  O36  1  0.30872792  0.26516242  0.52091070  1
  O  O37  1  0.30644314  0.47033249  0.08534534  1
  O  O38  1  0.40378529  0.31507875  0.20927225  1
  O  O39  1  0.26230358  0.84711824  0.82461345  1
  O  O40  1  0.31683974  0.03404461  0.40925270  1
  O  O41  1  0.40298733  0.99653878  0.21358666  1
  O  O42  1  0.76230358  0.15288176  0.17538655  1
  O  O43  1  0.90512879  0.35069128  0.15119234  1
  O  O44  1  0.26508054  0.71296186  0.16522866  1
  O  O45  1  0.40359178  0.00528833  0.71525127  1
  O  O46  1  0.31419899  0.03564957  0.91171147  1
  O  O47  1  0.25419164  0.46928171  0.58475417  1
  O  O48  1  0.31124944  0.71296129  0.66676715  1
  O  O49  1  0.15980932  0.64090909  0.34298472  1
  O  O50  1  0.90378529  0.68492125  0.79072775  1
  O  O51  1  0.76508054  0.28703814  0.83477134  1
