# generated using pymatgen
data_Mg(SiB6)2
_symmetry_space_group_name_H-M   'P 1'
_cell_length_a   6.11349760
_cell_length_b   8.37719396
_cell_length_c   11.00011086
_cell_angle_alpha   90.00000000
_cell_angle_beta   90.00000000
_cell_angle_gamma   90.00000000
_symmetry_Int_Tables_number   1
_chemical_formula_structural   Mg(SiB6)2
_chemical_formula_sum   'Mg4 Si8 B48'
_cell_volume   563.35918444
_cell_formula_units_Z   4
loop_
 _symmetry_equiv_pos_site_id
 _symmetry_equiv_pos_as_xyz
  1  'x, y, z'
loop_
 _atom_site_type_symbol
 _atom_site_label
 _atom_site_symmetry_multiplicity
 _atom_site_fract_x
 _atom_site_fract_y
 _atom_site_fract_z
 _atom_site_occupancy
  Mg  Mg0  1  0.75000000  0.15877273  0.42939813  1
  Mg  Mg1  1  0.25000000  0.65877273  0.07060187  1
  Mg  Mg2  1  0.75000000  0.34122727  0.92939813  1
  Mg  Mg3  1  0.25000000  0.84122727  0.57060187  1
  Si  Si4  1  0.75000000  0.63214376  0.91824291  1
  Si  Si5  1  0.75000000  0.10116421  0.08455653  1
  Si  Si6  1  0.75000000  0.39883579  0.58455653  1
  Si  Si7  1  0.25000000  0.89883579  0.91544347  1
  Si  Si8  1  0.25000000  0.36785624  0.08175709  1
  Si  Si9  1  0.75000000  0.86785624  0.41824291  1
  Si  Si10  1  0.25000000  0.13214376  0.58175709  1
  Si  Si11  1  0.25000000  0.60116421  0.41544347  1
  B  B12  1  0.01481931  0.53317739  0.83071113  1
  B  B13  1  0.09183970  0.16621708  0.29175810  1
  B  B14  1  0.98518069  0.46682261  0.16928887  1
  B  B15  1  0.75000000  0.15470834  0.64743607  1
  B  B16  1  0.01690467  0.03019366  0.17273958  1
  B  B17  1  0.09105240  0.83349613  0.21289490  1
  B  B18  1  0.75000000  0.34529166  0.14743607  1
  B  B19  1  0.75000000  0.64887349  0.34671193  1
  B  B20  1  0.25000000  0.84529166  0.35256393  1
  B  B21  1  0.40894760  0.83349613  0.21289490  1
  B  B22  1  0.75000000  0.94302959  0.59694594  1
  B  B23  1  0.40816030  0.16621708  0.29175810  1
  B  B24  1  0.25000000  0.05697041  0.40305406  1
  B  B25  1  0.01481931  0.96682261  0.33071113  1
  B  B26  1  0.59183970  0.83378292  0.70824190  1
  B  B27  1  0.09105240  0.66650387  0.71289490  1
  B  B28  1  0.48309533  0.46980634  0.67273958  1
  B  B29  1  0.40894760  0.66650387  0.71289490  1
  B  B30  1  0.59105240  0.33349613  0.28710510  1
  B  B31  1  0.01690467  0.46980634  0.67273958  1
  B  B32  1  0.51690467  0.96980634  0.82726042  1
  B  B33  1  0.90816030  0.66621708  0.20824190  1
  B  B34  1  0.48518069  0.53317739  0.83071113  1
  B  B35  1  0.75000000  0.44540842  0.39938459  1
  B  B36  1  0.51481931  0.03317739  0.66928887  1
  B  B37  1  0.25000000  0.94540842  0.10061541  1
  B  B38  1  0.75000000  0.85112651  0.84671193  1
  B  B39  1  0.59105240  0.16650387  0.78710510  1
  B  B40  1  0.98518069  0.03317739  0.66928887  1
  B  B41  1  0.25000000  0.35112651  0.65328807  1
  B  B42  1  0.98309533  0.96980634  0.82726042  1
  B  B43  1  0.90894760  0.33349613  0.28710510  1
  B  B44  1  0.75000000  0.05459158  0.89938459  1
  B  B45  1  0.98309533  0.53019366  0.32726042  1
  B  B46  1  0.09183970  0.33378292  0.79175810  1
  B  B47  1  0.51481931  0.46682261  0.16928887  1
  B  B48  1  0.40816030  0.33378292  0.79175810  1
  B  B49  1  0.48309533  0.03019366  0.17273958  1
  B  B50  1  0.48518069  0.96682261  0.33071113  1
  B  B51  1  0.90894760  0.16650387  0.78710510  1
  B  B52  1  0.25000000  0.55459158  0.60061541  1
  B  B53  1  0.25000000  0.14887349  0.15328807  1
  B  B54  1  0.51690467  0.53019366  0.32726042  1
  B  B55  1  0.59183970  0.66621708  0.20824190  1
  B  B56  1  0.90816030  0.83378292  0.70824190  1
  B  B57  1  0.75000000  0.55697041  0.09694594  1
  B  B58  1  0.25000000  0.65470834  0.85256393  1
  B  B59  1  0.25000000  0.44302959  0.90305406  1
