# generated using pymatgen
data_BaNb2O6
_symmetry_space_group_name_H-M   'P 1'
_cell_length_a   7.33219696
_cell_length_b   7.33219696
_cell_length_c   10.41630912
_cell_angle_alpha   90.00000000
_cell_angle_beta   90.00000000
_cell_angle_gamma   115.09541601
_symmetry_Int_Tables_number   1
_chemical_formula_structural   BaNb2O6
_chemical_formula_sum   'Ba4 Nb8 O24'
_cell_volume   507.13061541
_cell_formula_units_Z   4
loop_
 _symmetry_equiv_pos_site_id
 _symmetry_equiv_pos_as_xyz
  1  'x, y, z'
loop_
 _atom_site_type_symbol
 _atom_site_label
 _atom_site_symmetry_multiplicity
 _atom_site_fract_x
 _atom_site_fract_y
 _atom_site_fract_z
 _atom_site_occupancy
  Ba  Ba0  1  0.42703188  0.57296812  0.75000000  1
  Ba  Ba1  1  0.12968408  0.87031592  0.25000000  1
  Ba  Ba2  1  0.57296812  0.42703188  0.25000000  1
  Ba  Ba3  1  0.87031592  0.12968408  0.75000000  1
  Nb  Nb4  1  0.41090882  0.12476498  0.92267965  1
  Nb  Nb5  1  0.87523502  0.58909118  0.57732035  1
  Nb  Nb6  1  0.58909118  0.87523502  0.42267965  1
  Nb  Nb7  1  0.63288421  0.90934812  0.07230218  1
  Nb  Nb8  1  0.12476498  0.41090882  0.07732035  1
  Nb  Nb9  1  0.09065188  0.36711579  0.42769782  1
  Nb  Nb10  1  0.36711579  0.09065188  0.57230218  1
  Nb  Nb11  1  0.90934812  0.63288421  0.92769782  1
  O  O12  1  0.88024000  0.11865961  0.46611396  1
  O  O13  1  0.91882520  0.51759485  0.10884542  1
  O  O14  1  0.11865961  0.88024000  0.53388604  1
  O  O15  1  0.34143607  0.66093004  0.38386956  1
  O  O16  1  0.88134039  0.11976000  0.03388604  1
  O  O17  1  0.66093004  0.34143607  0.61613044  1
  O  O18  1  0.65856393  0.33906996  0.88386956  1
  O  O19  1  0.30499746  0.30499746  -0.00000000  1
  O  O20  1  0.70686976  0.86643564  0.25015644  1
  O  O21  1  0.33906996  0.65856393  0.11613044  1
  O  O22  1  0.08117480  0.48240515  0.60884542  1
  O  O23  1  0.31152495  0.31152495  0.50000000  1
  O  O24  1  0.48240515  0.08117480  0.39115458  1
  O  O25  1  0.86643564  0.70686976  0.74984356  1
  O  O26  1  0.51759485  0.91882520  0.89115458  1
  O  O27  1  0.69500254  0.69500254  0.50000000  1
  O  O28  1  0.07868043  0.48478218  0.89159549  1
  O  O29  1  0.92131957  0.51521782  0.39159549  1
  O  O30  1  0.48478218  0.07868043  0.10840451  1
  O  O31  1  0.11976000  0.88134039  0.96611396  1
  O  O32  1  0.13356436  0.29313024  0.24984356  1
  O  O33  1  0.68847505  0.68847505  -0.00000000  1
  O  O34  1  0.51521782  0.92131957  0.60840451  1
  O  O35  1  0.29313024  0.13356436  0.75015644  1
