# generated using pymatgen
data_NiBiAsO5
_symmetry_space_group_name_H-M   'P 1'
_cell_length_a   5.23068953
_cell_length_b   7.59118545
_cell_length_c   11.19298409
_cell_angle_alpha   93.72422613
_cell_angle_beta   96.89145066
_cell_angle_gamma   70.36057101
_symmetry_Int_Tables_number   1
_chemical_formula_structural   NiBiAsO5
_chemical_formula_sum   'Ni4 Bi4 As4 O20'
_cell_volume   415.41822802
_cell_formula_units_Z   4
loop_
 _symmetry_equiv_pos_site_id
 _symmetry_equiv_pos_as_xyz
  1  'x, y, z'
loop_
 _atom_site_type_symbol
 _atom_site_label
 _atom_site_symmetry_multiplicity
 _atom_site_fract_x
 _atom_site_fract_y
 _atom_site_fract_z
 _atom_site_occupancy
  Ni  Ni0  1  0.78055360  0.05193471  0.68742296  1
  Ni  Ni1  1  0.21933165  0.94806755  0.31252286  1
  Ni  Ni2  1  0.28046066  0.55170715  0.18743717  1
  Ni  Ni3  1  0.71964830  0.44828831  0.81262655  1
  Bi  Bi4  1  0.80710264  0.59926651  0.36629872  1
  Bi  Bi5  1  0.30717667  0.09939519  0.86629811  1
  Bi  Bi6  1  0.19299369  0.40077093  0.63372681  1
  Bi  Bi7  1  0.69272564  0.90057054  0.13368171  1
  As  As8  1  0.13030122  0.71161025  0.89949465  1
  As  As9  1  0.62994672  0.21165579  0.39939611  1
  As  As10  1  0.86999613  0.28821476  0.10058786  1
  As  As11  1  0.36973620  0.78849279  0.60051373  1
  O  O12  1  0.49787172  0.27338132  0.77518683  1
  O  O13  1  -0.00237452  0.77322534  0.27515078  1
  O  O14  1  0.50223376  0.72658468  0.22481645  1
  O  O15  1  0.00227621  0.22682602  0.72486364  1
  O  O16  1  0.95554705  0.31283613  0.96177321  1
  O  O17  1  0.45530449  0.81281457  0.46168125  1
  O  O18  1  0.04460998  0.68711747  0.03829551  1
  O  O19  1  0.54455981  0.18723883  0.53825719  1
  O  O20  1  0.00635019  0.57437885  0.79920523  1
  O  O21  1  0.50590634  0.07434947  0.29912384  1
  O  O22  1  0.99397277  0.42548715  0.20089775  1
  O  O23  1  0.49375376  0.92579294  0.70076324  1
  O  O24  1  0.52556576  0.55911297  0.64206851  1
  O  O25  1  0.02582997  0.05875804  0.14194260  1
  O  O26  1  0.47409857  0.44110165  0.35799404  1
  O  O27  1  0.97451458  0.94100893  0.85800344  1
  O  O28  1  0.53064331  0.33323410  0.09628025  1
  O  O29  1  0.03033136  0.83346915  0.59617766  1
  O  O30  1  0.46974383  0.66667704  0.90390423  1
  O  O31  1  0.96928993  0.16663087  0.40360613  1
