# generated using pymatgen
data_Na2UO4
_symmetry_space_group_name_H-M   'P 1'
_cell_length_a   3.49941152
_cell_length_b   5.66023308
_cell_length_c   9.68691987
_cell_angle_alpha   90.00000000
_cell_angle_beta   90.00000000
_cell_angle_gamma   90.00000000
_symmetry_Int_Tables_number   1
_chemical_formula_structural   Na2UO4
_chemical_formula_sum   'Na4 U2 O8'
_cell_volume   191.87351853
_cell_formula_units_Z   2
loop_
 _symmetry_equiv_pos_site_id
 _symmetry_equiv_pos_as_xyz
  1  'x, y, z'
loop_
 _atom_site_type_symbol
 _atom_site_label
 _atom_site_symmetry_multiplicity
 _atom_site_fract_x
 _atom_site_fract_y
 _atom_site_fract_z
 _atom_site_occupancy
  Na  Na0  1  0.50000000  0.44251198  0.18485122  1
  Na  Na1  1  0.50000000  0.05748802  0.68485122  1
  Na  Na2  1  0.50000000  0.94251198  0.31514878  1
  Na  Na3  1  0.50000000  0.55748802  0.81514878  1
  U  U4  1  0.00000000  0.00000000  0.00000000  1
  U  U5  1  -0.00000000  0.50000000  0.50000000  1
  O  O6  1  -0.00000000  0.35288981  0.67920358  1
  O  O7  1  0.50000000  0.28819690  0.44596393  1
  O  O8  1  0.00000000  0.85288981  0.82079642  1
  O  O9  1  0.50000000  0.71180310  0.55403607  1
  O  O10  1  0.00000000  0.64711019  0.32079642  1
  O  O11  1  0.50000000  0.21180310  0.94596393  1
  O  O12  1  -0.00000000  0.14711019  0.17920358  1
  O  O13  1  0.50000000  0.78819690  0.05403607  1
