# generated using pymatgen
data_PrTa3O9
_symmetry_space_group_name_H-M   'P 1'
_cell_length_a   7.57229720
_cell_length_b   5.43955251
_cell_length_c   8.21959513
_cell_angle_alpha   87.61111312
_cell_angle_beta   90.00000000
_cell_angle_gamma   90.00000000
_symmetry_Int_Tables_number   1
_chemical_formula_structural   PrTa3O9
_chemical_formula_sum   'Pr2 Ta6 O18'
_cell_volume   338.27013379
_cell_formula_units_Z   2
loop_
 _symmetry_equiv_pos_site_id
 _symmetry_equiv_pos_as_xyz
  1  'x, y, z'
loop_
 _atom_site_type_symbol
 _atom_site_label
 _atom_site_symmetry_multiplicity
 _atom_site_fract_x
 _atom_site_fract_y
 _atom_site_fract_z
 _atom_site_occupancy
  Pr  Pr0  1  0.25000000  0.96710945  0.43410842  1
  Pr  Pr1  1  0.75000000  0.03289055  0.56589158  1
  Ta  Ta2  1  0.49283656  0.52582817  0.69957316  1
  Ta  Ta3  1  0.00716344  0.52582817  0.69957316  1
  Ta  Ta4  1  0.99283656  0.47417183  0.30042684  1
  Ta  Ta5  1  0.00000000  0.00000000  -0.00000000  1
  Ta  Ta6  1  0.50716344  0.47417183  0.30042684  1
  Ta  Ta7  1  0.50000000  0.00000000  -0.00000000  1
  O  O8  1  0.95199943  0.68336712  0.12159448  1
  O  O9  1  0.04800057  0.31663288  0.87840552  1
  O  O10  1  0.05442522  0.15500068  0.21286805  1
  O  O11  1  0.75000000  0.35517030  0.33812293  1
  O  O12  1  0.03687843  0.26750656  0.53307631  1
  O  O13  1  0.44557478  0.15500068  0.21286805  1
  O  O14  1  0.54800057  0.68336712  0.12159448  1
  O  O15  1  0.53687843  0.73249344  0.46692369  1
  O  O16  1  0.75000000  0.08432117  0.01522360  1
  O  O17  1  0.94557478  0.84499932  0.78713195  1
  O  O18  1  0.75000000  0.44448722  0.68796399  1
  O  O19  1  0.55442522  0.84499932  0.78713195  1
  O  O20  1  0.25000000  0.55551278  0.31203601  1
  O  O21  1  0.45199943  0.31663288  0.87840552  1
  O  O22  1  0.96312157  0.73249344  0.46692369  1
  O  O23  1  0.46312157  0.26750656  0.53307631  1
  O  O24  1  0.25000000  0.64482970  0.66187707  1
  O  O25  1  0.25000000  0.91567883  0.98477640  1
