# generated using pymatgen
data_GaI2
_symmetry_space_group_name_H-M   'P 1'
_cell_length_a   15.20396268
_cell_length_b   15.20396166
_cell_length_c   15.20396148
_cell_angle_alpha   117.28012628
_cell_angle_beta   117.28011831
_cell_angle_gamma   117.28011874
_symmetry_Int_Tables_number   1
_chemical_formula_structural   GaI2
_chemical_formula_sum   'Ga12 I24'
_cell_volume   1479.44133193
_cell_formula_units_Z   12
loop_
 _symmetry_equiv_pos_site_id
 _symmetry_equiv_pos_as_xyz
  1  'x, y, z'
loop_
 _atom_site_type_symbol
 _atom_site_label
 _atom_site_symmetry_multiplicity
 _atom_site_fract_x
 _atom_site_fract_y
 _atom_site_fract_z
 _atom_site_occupancy
  Ga  Ga0  1  0.25076419  0.94114958  0.10227347  1
  Ga  Ga1  1  0.29582757  0.10480316  0.91434400  1
  Ga  Ga2  1  0.79582757  0.41434400  0.60480316  1
  Ga  Ga3  1  0.10480316  0.91434400  0.29582757  1
  Ga  Ga4  1  0.44115058  0.75076419  0.60227347  1
  Ga  Ga5  1  0.75076419  0.60227347  0.44115058  1
  Ga  Ga6  1  0.60227347  0.44115058  0.75076419  1
  Ga  Ga7  1  0.41434400  0.60480316  0.79582757  1
  Ga  Ga8  1  0.94114958  0.10227347  0.25076419  1
  Ga  Ga9  1  0.60480316  0.79582757  0.41434400  1
  Ga  Ga10  1  0.10227347  0.25076419  0.94114958  1
  Ga  Ga11  1  0.91434400  0.29582757  0.10480316  1
  I  I12  1  0.14717659  0.55806567  0.21855888  1
  I  I13  1  0.04250490  0.45208549  0.38683153  1
  I  I14  1  0.59710143  0.40637225  0.50033104  1
  I  I15  1  0.21855888  0.14717659  0.55806567  1
  I  I16  1  0.34301244  0.59947211  0.09232470  1
  I  I17  1  0.00033104  0.90637225  0.09710143  1
  I  I18  1  0.38683153  0.04250490  0.45208549  1
  I  I19  1  0.95208549  0.54250490  0.88683153  1
  I  I20  1  0.64717659  0.71855888  0.05806567  1
  I  I21  1  0.50033104  0.59710143  0.40637225  1
  I  I22  1  0.09232470  0.34301244  0.59947211  1
  I  I23  1  0.84301244  0.59232470  0.09947211  1
  I  I24  1  0.55806567  0.21855888  0.14717659  1
  I  I25  1  0.45208549  0.38683153  0.04250490  1
  I  I26  1  0.90637225  0.09710143  0.00033104  1
  I  I27  1  0.40637225  0.50033104  0.59710143  1
  I  I28  1  0.09947211  0.84301244  0.59232470  1
  I  I29  1  0.59947211  0.09232470  0.34301244  1
  I  I30  1  0.09710143  0.00033104  0.90637225  1
  I  I31  1  0.05806567  0.64717659  0.71855888  1
  I  I32  1  0.54250490  0.88683153  0.95208549  1
  I  I33  1  0.59232470  0.09947211  0.84301244  1
  I  I34  1  0.88683153  0.95208549  0.54250490  1
  I  I35  1  0.71855888  0.05806567  0.64717659  1
