# generated using pymatgen
data_Cs3CoI5
_symmetry_space_group_name_H-M   'P 1'
_cell_length_a   10.05498782
_cell_length_b   11.70089736
_cell_length_c   14.84724222
_cell_angle_alpha   90.00000000
_cell_angle_beta   90.00000000
_cell_angle_gamma   90.00000000
_symmetry_Int_Tables_number   1
_chemical_formula_structural   Cs3CoI5
_chemical_formula_sum   'Cs12 Co4 I20'
_cell_volume   1746.81339012
_cell_formula_units_Z   4
loop_
 _symmetry_equiv_pos_site_id
 _symmetry_equiv_pos_as_xyz
  1  'x, y, z'
loop_
 _atom_site_type_symbol
 _atom_site_label
 _atom_site_symmetry_multiplicity
 _atom_site_fract_x
 _atom_site_fract_y
 _atom_site_fract_z
 _atom_site_occupancy
  Cs  Cs0  1  0.58774174  0.75000000  0.04599974  1
  Cs  Cs1  1  0.08237895  0.51491362  0.17248989  1
  Cs  Cs2  1  0.91225826  0.25000000  0.54599974  1
  Cs  Cs3  1  0.08237895  0.98508638  0.17248989  1
  Cs  Cs4  1  0.91762105  0.01491362  0.82751011  1
  Cs  Cs5  1  0.41762105  0.48508638  0.67248989  1
  Cs  Cs6  1  0.08774174  0.75000000  0.45400026  1
  Cs  Cs7  1  0.58237895  0.51491362  0.32751011  1
  Cs  Cs8  1  0.41762105  0.01491362  0.67248989  1
  Cs  Cs9  1  0.41225826  0.25000000  0.95400026  1
  Cs  Cs10  1  0.91762105  0.48508638  0.82751011  1
  Cs  Cs11  1  0.58237895  0.98508638  0.32751011  1
  Co  Co12  1  0.18677906  0.75000000  0.89359539  1
  Co  Co13  1  0.81322094  0.25000000  0.10640461  1
  Co  Co14  1  0.68677906  0.75000000  0.60640461  1
  Co  Co15  1  0.31322094  0.25000000  0.39359539  1
  I  I16  1  0.52970716  0.25000000  0.48821717  1
  I  I17  1  0.69063661  0.43726646  0.06532738  1
  I  I18  1  0.80936339  0.56273354  0.56532738  1
  I  I19  1  0.83323977  0.75000000  0.26249571  1
  I  I20  1  0.19063661  0.43726646  0.43467262  1
  I  I21  1  0.33323977  0.75000000  0.23750429  1
  I  I22  1  0.16676023  0.25000000  0.73750429  1
  I  I23  1  0.30936339  0.56273354  0.93467262  1
  I  I24  1  0.63867820  0.75000000  0.77761247  1
  I  I25  1  0.47029284  0.75000000  0.51178283  1
  I  I26  1  0.97029284  0.75000000  0.98821717  1
  I  I27  1  0.13867820  0.75000000  0.72238753  1
  I  I28  1  0.30936339  0.93726646  0.93467262  1
  I  I29  1  0.69063661  0.06273354  0.06532738  1
  I  I30  1  0.80936339  0.93726646  0.56532738  1
  I  I31  1  0.19063661  0.06273354  0.43467262  1
  I  I32  1  0.02970716  0.25000000  0.01178283  1
  I  I33  1  0.66676023  0.25000000  0.76249571  1
  I  I34  1  0.36132180  0.25000000  0.22238753  1
  I  I35  1  0.86132180  0.25000000  0.27761247  1
