# generated using pymatgen
data_K2PdSe10
_symmetry_space_group_name_H-M   'P 1'
_cell_length_a   13.05287599
_cell_length_b   13.05182980
_cell_length_c   13.05364396
_cell_angle_alpha   103.14083869
_cell_angle_beta   103.14029020
_cell_angle_gamma   123.05498871
_symmetry_Int_Tables_number   1
_chemical_formula_structural   K2PdSe10
_chemical_formula_sum   'K8 Pd4 Se40'
_cell_volume   1638.34813678
_cell_formula_units_Z   4
loop_
 _symmetry_equiv_pos_site_id
 _symmetry_equiv_pos_as_xyz
  1  'x, y, z'
loop_
 _atom_site_type_symbol
 _atom_site_label
 _atom_site_symmetry_multiplicity
 _atom_site_fract_x
 _atom_site_fract_y
 _atom_site_fract_z
 _atom_site_occupancy
  K  K0  1  0.85127110  0.65540491  0.01130315  1
  K  K1  1  0.39877588  0.90999730  0.30407759  1
  K  K2  1  0.90546474  0.60127397  0.51126962  1
  K  K3  1  0.60587587  0.09469445  0.69587967  1
  K  K4  1  0.09000445  0.39417256  0.48880859  1
  K  K5  1  0.34461910  0.35579422  0.19583660  1
  K  K6  1  0.64411431  0.83995430  0.98874060  1
  K  K7  1  0.15998371  0.14879044  0.80409124  1
  Pd  Pd8  1  0.74997583  0.24997990  0.49988531  1
  Pd  Pd9  1  0.24992910  0.75000299  0.50000558  1
  Pd  Pd10  1  0.49988986  0.49994696  -0.00009039  1
  Pd  Pd11  1  0.00010649  0.00013166  -0.00003040  1
  Se  Se12  1  0.08138677  0.13136344  0.33041522  1
  Se  Se13  1  0.40894126  0.76747993  0.66119729  1
  Se  Se14  1  0.32179187  0.26946704  0.41977517  1
  Se  Se15  1  0.22906161  0.51135233  0.80107381  1
  Se  Se16  1  0.51955332  0.07185932  0.91969264  1
  Se  Se17  1  0.57164804  0.77067441  0.28217865  1
  Se  Se18  1  0.92826554  0.84796762  0.44772134  1
  Se  Se19  1  0.40032483  0.48057328  0.55238891  1
  Se  Se20  1  0.44911813  0.61869256  0.45010053  1
  Se  Se21  1  0.23250079  0.89364034  0.64158740  1
  Se  Se22  1  0.15214750  0.59971539  0.08034738  1
  Se  Se23  1  0.10641996  0.74788571  0.33879409  1
  Se  Se24  1  0.86866188  0.19905277  0.95006161  1
  Se  Se25  1  0.64945211  0.56801280  0.19822892  1
  Se  Se26  1  0.38135932  0.83138596  0.83044094  1
  Se  Se27  1  0.81800186  0.39964443  0.69821903  1
  Se  Se28  1  0.14353187  0.98240318  0.14145052  1
  Se  Se29  1  0.60041197  0.29870965  0.41836850  1
  Se  Se30  1  0.00098720  0.55087639  0.16959134  1
  Se  Se31  1  0.76133163  0.97902510  0.30110225  1
  Se  Se32  1  0.16866665  -0.00095942  0.55004960  1
  Se  Se33  1  0.25212679  0.59091471  0.35861158  1
  Se  Se34  1  0.67817107  0.46044676  0.69890621  1
  Se  Se35  1  0.84992879  0.90222300  0.58034282  1
  Se  Se36  1  0.01749670  0.15900449  0.16116339  1
  Se  Se37  1  0.36963858  0.45133925  0.80172202  1
  Se  Se38  1  0.88020537  0.18189110  0.58135833  1
  Se  Se39  1  0.54881751  0.35050955  0.91838703  1
  Se  Se40  1  -0.00211321  0.85632828  0.83884964  1
  Se  Se41  1  0.53988537  0.23866714  0.21781064  1
  Se  Se42  1  0.73056723  0.15027544  0.05234907  1
  Se  Se43  1  0.80095526  0.75099604  0.66958349  1
  Se  Se44  1  0.48861280  0.28981521  0.71778680  1
  Se  Se45  1  0.43186114  0.63019330  0.08152212  1
  Se  Se46  1  0.70129979  0.11959205  0.30166568  1
  Se  Se47  1  0.84098030  0.00211441  0.85853764  1
  Se  Se48  1  0.09794213  0.67814090  0.94779568  1
  Se  Se49  1  0.71040669  0.42829715  0.19897805  1
  Se  Se50  1  0.02065714  0.32169257  0.78204306  1
  Se  Se51  1  0.24898501  0.91859276  0.05001942  1
