# generated using pymatgen
data_Ag2S
_symmetry_space_group_name_H-M   'P 1'
_cell_length_a   4.22177760
_cell_length_b   7.40479848
_cell_length_c   4.23361507
_cell_angle_alpha   90.00000000
_cell_angle_beta   68.20153409
_cell_angle_gamma   90.00000000
_symmetry_Int_Tables_number   1
_chemical_formula_structural   Ag2S
_chemical_formula_sum   'Ag4 S2'
_cell_volume   122.88528831
_cell_formula_units_Z   2
loop_
 _symmetry_equiv_pos_site_id
 _symmetry_equiv_pos_as_xyz
  1  'x, y, z'
loop_
 _atom_site_type_symbol
 _atom_site_label
 _atom_site_symmetry_multiplicity
 _atom_site_fract_x
 _atom_site_fract_y
 _atom_site_fract_z
 _atom_site_occupancy
  Ag  Ag0  1  0.11388983  0.75000000  0.10402510  1
  Ag  Ag1  1  0.88611017  0.25000000  0.89597490  1
  Ag  Ag2  1  0.50000000  -0.00000000  0.50000000  1
  Ag  Ag3  1  0.50000000  0.50000000  0.50000000  1
  S  S4  1  0.72751259  0.75000000  0.71522419  1
  S  S5  1  0.27248741  0.25000000  0.28477581  1
