# generated using pymatgen
data_Rb2TiO3
_symmetry_space_group_name_H-M   'P 1'
_cell_length_a   6.68991195
_cell_length_b   6.68991195
_cell_length_c   13.34690476
_cell_angle_alpha   90.00000000
_cell_angle_beta   90.00000000
_cell_angle_gamma   126.60895356
_symmetry_Int_Tables_number   1
_chemical_formula_structural   Rb2TiO3
_chemical_formula_sum   'Rb8 Ti4 O12'
_cell_volume   479.49907235
_cell_formula_units_Z   4
loop_
 _symmetry_equiv_pos_site_id
 _symmetry_equiv_pos_as_xyz
  1  'x, y, z'
loop_
 _atom_site_type_symbol
 _atom_site_label
 _atom_site_symmetry_multiplicity
 _atom_site_fract_x
 _atom_site_fract_y
 _atom_site_fract_z
 _atom_site_occupancy
  Rb  Rb0  1  0.36877483  0.63122517  0.07418731  1
  Rb  Rb1  1  0.86877483  0.13122517  0.42581269  1
  Rb  Rb2  1  0.13122517  0.86877483  0.57418731  1
  Rb  Rb3  1  0.63122517  0.36877483  0.92581269  1
  Rb  Rb4  1  0.44242226  0.55757774  0.63655928  1
  Rb  Rb5  1  0.55757774  0.44242226  0.36344072  1
  Rb  Rb6  1  0.05757774  0.94242226  0.13655928  1
  Rb  Rb7  1  0.94242226  0.05757774  0.86344072  1
  Ti  Ti8  1  0.75527934  0.24472066  0.66972542  1
  Ti  Ti9  1  0.74472066  0.25527934  0.16972542  1
  Ti  Ti10  1  0.24472066  0.75527934  0.33027458  1
  Ti  Ti11  1  0.25527934  0.74472066  0.83027458  1
  O  O12  1  0.97374738  0.52625262  0.75000000  1
  O  O13  1  0.52625262  0.97374738  0.25000000  1
  O  O14  1  0.02625262  0.47374738  0.25000000  1
  O  O15  1  0.47374738  0.02625262  0.75000000  1
  O  O16  1  0.39940630  0.60059370  0.86264740  1
  O  O17  1  0.60059370  0.39940630  0.13735260  1
  O  O18  1  0.10059370  0.89940630  0.36264740  1
  O  O19  1  0.66828433  0.33171567  0.56192342  1
  O  O20  1  0.16828433  0.83171567  0.93807658  1
  O  O21  1  0.83171567  0.16828433  0.06192342  1
  O  O22  1  0.33171567  0.66828433  0.43807658  1
  O  O23  1  0.89940630  0.10059370  0.63735260  1
