# generated using pymatgen
data_Ba5Si(Cl3O2)2
_symmetry_space_group_name_H-M   'P 1'
_cell_length_a   8.82848697
_cell_length_b   8.82848697
_cell_length_c   11.81784546
_cell_angle_alpha   82.16545702
_cell_angle_beta   82.16545702
_cell_angle_gamma   114.69271704
_symmetry_Int_Tables_number   1
_chemical_formula_structural   Ba5Si(Cl3O2)2
_chemical_formula_sum   'Ba10 Si2 Cl12 O8'
_cell_volume   809.73602389
_cell_formula_units_Z   2
loop_
 _symmetry_equiv_pos_site_id
 _symmetry_equiv_pos_as_xyz
  1  'x, y, z'
loop_
 _atom_site_type_symbol
 _atom_site_label
 _atom_site_symmetry_multiplicity
 _atom_site_fract_x
 _atom_site_fract_y
 _atom_site_fract_z
 _atom_site_occupancy
  Ba  Ba0  1  0.68087762  0.42588996  0.52007461  1
  Ba  Ba1  1  0.79875417  0.20124583  0.25000000  1
  Ba  Ba2  1  0.76990785  0.92475234  0.63333598  1
  Ba  Ba3  1  0.07524766  0.23009215  0.86666402  1
  Ba  Ba4  1  0.31912238  0.57411004  0.47992539  1
  Ba  Ba5  1  0.20124583  0.79875417  0.75000000  1
  Ba  Ba6  1  0.92475234  0.76990785  0.13333598  1
  Ba  Ba7  1  0.23009215  0.07524766  0.36666402  1
  Ba  Ba8  1  0.42588996  0.68087762  0.02007461  1
  Ba  Ba9  1  0.57411004  0.31912238  0.97992539  1
  Si  Si10  1  0.42235639  0.57764361  0.75000000  1
  Si  Si11  1  0.57764361  0.42235639  0.25000000  1
  Cl  Cl12  1  0.20420873  0.14732509  0.63219077  1
  Cl  Cl13  1  0.01855205  0.71804982  0.54938844  1
  Cl  Cl14  1  0.71804982  0.01855205  0.04938844  1
  Cl  Cl15  1  0.79579127  0.85267491  0.36780923  1
  Cl  Cl16  1  0.85267491  0.79579127  0.86780923  1
  Cl  Cl17  1  0.75877339  0.24122661  0.75000000  1
  Cl  Cl18  1  0.98144795  0.28195018  0.45061156  1
  Cl  Cl19  1  0.14732509  0.20420873  0.13219077  1
  Cl  Cl20  1  0.24122661  0.75877339  0.25000000  1
  Cl  Cl21  1  0.00000000  0.50000000  -0.00000000  1
  Cl  Cl22  1  0.28195018  0.98144795  0.95061156  1
  Cl  Cl23  1  0.50000000  0.00000000  0.50000000  1
  O  O24  1  0.40175204  0.44273900  0.86717359  1
  O  O25  1  0.23524439  0.52274334  0.71457077  1
  O  O26  1  0.55726100  0.59824796  0.63282641  1
  O  O27  1  0.52274334  0.23524439  0.21457077  1
  O  O28  1  0.47725666  0.76475561  0.78542923  1
  O  O29  1  0.44273900  0.40175204  0.36717359  1
  O  O30  1  0.76475561  0.47725666  0.28542923  1
  O  O31  1  0.59824796  0.55726100  0.13282641  1
