# generated using pymatgen
data_CdI2
_symmetry_space_group_name_H-M   'P 1'
_cell_length_a   4.28749096
_cell_length_b   4.28749217
_cell_length_c   71.57456314
_cell_angle_alpha   90.00008368
_cell_angle_beta   89.99991019
_cell_angle_gamma   119.99970147
_symmetry_Int_Tables_number   1
_chemical_formula_structural   CdI2
_chemical_formula_sum   'Cd10 I20'
_cell_volume   1139.45506094
_cell_formula_units_Z   10
loop_
 _symmetry_equiv_pos_site_id
 _symmetry_equiv_pos_as_xyz
  1  'x, y, z'
loop_
 _atom_site_type_symbol
 _atom_site_label
 _atom_site_symmetry_multiplicity
 _atom_site_fract_x
 _atom_site_fract_y
 _atom_site_fract_z
 _atom_site_occupancy
  Cd  Cd0  1  0.66666700  0.33333300  0.32667199  1
  Cd  Cd1  1  -0.00000000  0.00000000  0.42590052  1
  Cd  Cd2  1  -0.00000000  0.00000000  0.92334341  1
  Cd  Cd3  1  0.66666700  0.33333300  0.02397713  1
  Cd  Cd4  1  -0.00000000  0.00000000  0.22608131  1
  Cd  Cd5  1  0.00000000  -0.00000000  0.52562820  1
  Cd  Cd6  1  -0.00000000  0.00000000  0.72443385  1
  Cd  Cd7  1  0.00000000  -0.00000000  0.12502801  1
  Cd  Cd8  1  -0.00000000  0.00000000  0.82370272  1
  Cd  Cd9  1  -0.00000000  0.00000000  0.62536607  1
  I  I10  1  0.33333300  0.66666700  0.44980730  1
  I  I11  1  0.33333300  0.66666700  0.35073465  1
  I  I12  1  0.66666700  0.33333300  0.10093336  1
  I  I13  1  0.66666700  0.33333300  0.89927202  1
  I  I14  1  0.33333300  0.66666700  0.94740366  1
  I  I15  1  -0.00000000  0.00000000  0.30259942  1
  I  I16  1  0.66666700  0.33333300  0.70029068  1
  I  I17  1  0.66666700  0.33333300  0.79976252  1
  I  I18  1  0.33333400  0.66666700  0.04809285  1
  I  I19  1  0.66666700  0.33333300  0.60142476  1
  I  I20  1  -0.00000000  0.00000000  0.99983223  1
  I  I21  1  0.33333300  0.66666700  0.54974343  1
  I  I22  1  0.33333300  0.66666700  0.14907191  1
  I  I23  1  0.66666700  0.33333300  0.40190051  1
  I  I24  1  0.33333300  0.66666700  0.25018261  1
  I  I25  1  0.66666700  0.33333300  0.50150137  1
  I  I26  1  0.33333300  0.66666700  0.84760364  1
  I  I27  1  0.33333300  0.66666700  0.64926871  1
  I  I28  1  0.66666700  0.33333300  0.20192513  1
  I  I29  1  0.33333300  0.66666700  0.74851602  1
