# generated using pymatgen
data_Nd4Al2O9
_symmetry_space_group_name_H-M   'P 1'
_cell_length_a   10.88724722
_cell_length_b   7.75286430
_cell_length_c   11.34838197
_cell_angle_alpha   70.55034510
_cell_angle_beta   90.00000000
_cell_angle_gamma   90.00000000
_symmetry_Int_Tables_number   1
_chemical_formula_structural   Nd4Al2O9
_chemical_formula_sum   'Nd16 Al8 O36'
_cell_volume   903.22450260
_cell_formula_units_Z   4
loop_
 _symmetry_equiv_pos_site_id
 _symmetry_equiv_pos_as_xyz
  1  'x, y, z'
loop_
 _atom_site_type_symbol
 _atom_site_label
 _atom_site_symmetry_multiplicity
 _atom_site_fract_x
 _atom_site_fract_y
 _atom_site_fract_z
 _atom_site_occupancy
  Nd  Nd0  1  0.37506418  0.33393988  0.07108420  1
  Nd  Nd1  1  0.39946723  0.52440457  0.71115527  1
  Nd  Nd2  1  0.89946723  0.47559543  0.78884473  1
  Nd  Nd3  1  0.62268838  0.16474873  0.91292948  1
  Nd  Nd4  1  0.91516885  0.97319982  0.81172180  1
  Nd  Nd5  1  0.10053277  0.52440457  0.21115527  1
  Nd  Nd6  1  0.87506418  0.66606012  0.42891580  1
  Nd  Nd7  1  0.08483115  0.02680018  0.18827820  1
  Nd  Nd8  1  0.60053277  0.47559543  0.28884473  1
  Nd  Nd9  1  0.12268838  0.83525127  0.58707052  1
  Nd  Nd10  1  0.58483115  0.97319982  0.31172180  1
  Nd  Nd11  1  0.12493582  0.33393988  0.57108420  1
  Nd  Nd12  1  0.87731162  0.16474873  0.41292948  1
  Nd  Nd13  1  0.62493582  0.66606012  0.92891580  1
  Nd  Nd14  1  0.37731162  0.83525127  0.08707052  1
  Nd  Nd15  1  0.41516885  0.02680018  0.68827820  1
  Al  Al16  1  0.19015175  0.65173795  0.88030310  1
  Al  Al17  1  0.80783904  0.77607249  0.12918003  1
  Al  Al18  1  0.80984825  0.34826205  0.11969690  1
  Al  Al19  1  0.19216096  0.22392751  0.87081997  1
  Al  Al20  1  0.69216096  0.77607249  0.62918003  1
  Al  Al21  1  0.30984825  0.65173795  0.38030310  1
  Al  Al22  1  0.69015175  0.34826205  0.61969690  1
  Al  Al23  1  0.30783904  0.22392751  0.37081997  1
  O  O24  1  0.00856956  0.56758211  0.60339646  1
  O  O25  1  0.99664677  0.07624922  0.60668962  1
  O  O26  1  0.27116460  0.64015069  0.53181929  1
  O  O27  1  0.22045124  0.78212873  0.25288802  1
  O  O28  1  0.74085177  0.56519968  0.61829738  1
  O  O29  1  0.00335323  0.92375078  0.39331038  1
  O  O30  1  0.72045124  0.21787127  0.24711198  1
  O  O31  1  0.77116460  0.35984931  0.96818071  1
  O  O32  1  0.53861318  0.29832141  0.67368393  1
  O  O33  1  0.26533367  0.08091381  0.51883152  1
  O  O34  1  0.25914823  0.43480032  0.38170262  1
  O  O35  1  0.03701566  0.21802219  0.83406548  1
  O  O36  1  0.24085177  0.43480032  0.88170262  1
  O  O37  1  0.49143044  0.56758211  0.10339646  1
  O  O38  1  0.53701566  0.78197781  0.66593452  1
  O  O39  1  0.72883540  0.35984931  0.46818071  1
  O  O40  1  0.75914823  0.56519968  0.11829738  1
  O  O41  1  0.72266747  0.76822805  0.26323861  1
  O  O42  1  0.22266747  0.23177195  0.23676139  1
  O  O43  1  0.76533367  0.91908619  0.98116848  1
  O  O44  1  0.77954876  0.21787127  0.74711198  1
  O  O45  1  0.22883540  0.64015069  0.03181929  1
  O  O46  1  0.49664677  0.92375078  0.89331038  1
  O  O47  1  0.99143044  0.43241789  0.39660354  1
  O  O48  1  0.03861318  0.70167859  0.82631607  1
  O  O49  1  0.73466633  0.91908619  0.48116848  1
  O  O50  1  0.50856956  0.43241789  0.89660354  1
  O  O51  1  0.46138682  0.70167859  0.32631607  1
  O  O52  1  0.27954876  0.78212873  0.75288802  1
  O  O53  1  0.96298434  0.78197781  0.16593452  1
  O  O54  1  0.50335323  0.07624922  0.10668962  1
  O  O55  1  0.23466633  0.08091381  0.01883152  1
  O  O56  1  0.46298434  0.21802219  0.33406548  1
  O  O57  1  0.77733253  0.76822805  0.76323861  1
  O  O58  1  0.96138682  0.29832141  0.17368393  1
  O  O59  1  0.27733253  0.23177195  0.73676139  1
