# generated using pymatgen
data_MnH8(BrO2)2
_symmetry_space_group_name_H-M   'P 1'
_cell_length_a   9.66651757
_cell_length_b   6.19101589
_cell_length_c   12.17561458
_cell_angle_alpha   69.25818420
_cell_angle_beta   90.00000000
_cell_angle_gamma   90.00000000
_symmetry_Int_Tables_number   1
_chemical_formula_structural   MnH8(BrO2)2
_chemical_formula_sum   'Mn4 H32 Br8 O16'
_cell_volume   681.42923632
_cell_formula_units_Z   4
loop_
 _symmetry_equiv_pos_site_id
 _symmetry_equiv_pos_as_xyz
  1  'x, y, z'
loop_
 _atom_site_type_symbol
 _atom_site_label
 _atom_site_symmetry_multiplicity
 _atom_site_fract_x
 _atom_site_fract_y
 _atom_site_fract_z
 _atom_site_occupancy
  Mn  Mn0  1  0.83442312  0.74965120  0.23572542  1
  Mn  Mn1  1  0.33442312  0.25034880  0.26427458  1
  Mn  Mn2  1  0.16557688  0.25034880  0.76427458  1
  Mn  Mn3  1  0.66557688  0.74965120  0.73572542  1
  H  H4  1  0.85199414  0.00991138  0.37822172  1
  H  H5  1  0.35199414  0.99008862  0.12177828  1
  H  H6  1  0.14800586  0.99008862  0.62177828  1
  H  H7  1  0.64800586  0.00991138  0.87822172  1
  H  H8  1  0.98154699  0.07430349  0.29862235  1
  H  H9  1  0.48154699  0.92569651  0.20137765  1
  H  H10  1  0.01845301  0.92569651  0.70137765  1
  H  H11  1  0.51845301  0.07430349  0.79862235  1
  H  H12  1  0.79515214  0.51616474  0.08472321  1
  H  H13  1  0.29515214  0.48383526  0.41527679  1
  H  H14  1  0.20484786  0.48383526  0.91527679  1
  H  H15  1  0.70484786  0.51616474  0.58472321  1
  H  H16  1  0.80363828  0.32142907  0.20917415  1
  H  H17  1  0.30363828  0.67857093  0.29082585  1
  H  H18  1  0.19636172  0.67857093  0.79082585  1
  H  H19  1  0.69636172  0.32142907  0.70917415  1
  H  H20  1  0.07065493  0.71643103  0.10850869  1
  H  H21  1  0.57065493  0.28356897  0.39149131  1
  H  H22  1  0.92934507  0.28356897  0.89149131  1
  H  H23  1  0.42934507  0.71643103  0.60850869  1
  H  H24  1  0.06487104  0.97932356  0.09844682  1
  H  H25  1  0.56487104  0.02067644  0.40155318  1
  H  H26  1  0.93512896  0.02067644  0.90155318  1
  H  H27  1  0.43512896  0.97932356  0.59844682  1
  H  H28  1  0.94547374  0.37951219  0.43130547  1
  H  H29  1  0.44547374  0.62048781  0.06869453  1
  H  H30  1  0.05452626  0.62048781  0.56869453  1
  H  H31  1  0.55452626  0.37951219  0.93130547  1
  H  H32  1  0.07206246  0.50985670  0.35226091  1
  H  H33  1  0.57206246  0.49014330  0.14773909  1
  H  H34  1  0.92793754  0.49014330  0.64773909  1
  H  H35  1  0.42793754  0.50985670  0.85226091  1
  Br  Br36  1  0.68603875  0.03619988  0.06017443  1
  Br  Br37  1  0.18603875  0.96380012  0.43982557  1
  Br  Br38  1  0.31396125  0.96380012  0.93982557  1
  Br  Br39  1  0.81396125  0.03619988  0.56017443  1
  Br  Br40  1  0.63434643  0.64966970  0.39074135  1
  Br  Br41  1  0.13434643  0.35033030  0.10925865  1
  Br  Br42  1  0.36565357  0.35033030  0.60925865  1
  Br  Br43  1  0.86565357  0.64966970  0.89074135  1
  O  O44  1  0.88239527  0.04424768  0.29655384  1
  O  O45  1  0.38239527  0.95575232  0.20344616  1
  O  O46  1  0.11760473  0.95575232  0.70344616  1
  O  O47  1  0.61760473  0.04424768  0.79655384  1
  O  O48  1  0.76852329  0.47862436  0.16730722  1
  O  O49  1  0.26852329  0.52137564  0.33269278  1
  O  O50  1  0.23147671  0.52137564  0.83269278  1
  O  O51  1  0.73147671  0.47862436  0.66730722  1
  O  O52  1  0.02247905  0.82808157  0.13485248  1
  O  O53  1  0.52247905  0.17191843  0.36514752  1
  O  O54  1  0.97752095  0.17191843  0.86514752  1
  O  O55  1  0.47752095  0.82808157  0.63485248  1
  O  O56  1  0.97184349  0.51252279  0.36327691  1
  O  O57  1  0.47184349  0.48747721  0.13672309  1
  O  O58  1  0.02815651  0.48747721  0.63672309  1
  O  O59  1  0.52815651  0.51252279  0.86327691  1
