# generated using pymatgen
data_CsSbS6(O3F)6
_symmetry_space_group_name_H-M   'P 1'
_cell_length_a   7.88070836
_cell_length_b   7.88070837
_cell_length_c   7.88070835
_cell_angle_alpha   97.60814857
_cell_angle_beta   97.60814852
_cell_angle_gamma   97.60815281
_symmetry_Int_Tables_number   1
_chemical_formula_structural   CsSbS6(O3F)6
_chemical_formula_sum   'Cs1 Sb1 S6 O18 F6'
_cell_volume   475.22460659
_cell_formula_units_Z   1
loop_
 _symmetry_equiv_pos_site_id
 _symmetry_equiv_pos_as_xyz
  1  'x, y, z'
loop_
 _atom_site_type_symbol
 _atom_site_label
 _atom_site_symmetry_multiplicity
 _atom_site_fract_x
 _atom_site_fract_y
 _atom_site_fract_z
 _atom_site_occupancy
  Cs  Cs0  1  -0.00000000  -0.00000000  -0.00000000  1
  Sb  Sb1  1  0.50000000  0.50000000  0.50000000  1
  S  S2  1  0.45164698  0.73391904  0.85718027  1
  S  S3  1  0.26608096  0.14281973  0.54835302  1
  S  S4  1  0.73391904  0.85718027  0.45164698  1
  S  S5  1  0.14281973  0.54835302  0.26608096  1
  S  S6  1  0.54835302  0.26608096  0.14281973  1
  S  S7  1  0.85718027  0.45164698  0.73391904  1
  O  O8  1  0.68709659  0.65785493  0.42989511  1
  O  O9  1  0.34214507  0.57010489  0.31290341  1
  O  O10  1  0.86219259  0.89485497  0.34812448  1
  O  O11  1  0.62578874  0.74835547  0.93483662  1
  O  O12  1  0.74835547  0.93483662  0.62578874  1
  O  O13  1  0.65785493  0.42989511  0.68709659  1
  O  O14  1  0.37421126  0.25164453  0.06516338  1
  O  O15  1  0.13780741  0.10514503  0.65187552  1
  O  O16  1  0.31290341  0.34214507  0.57010489  1
  O  O17  1  0.34812448  0.86219259  0.89485497  1
  O  O18  1  0.89485497  0.34812448  0.86219259  1
  O  O19  1  0.42989511  0.68709659  0.65785493  1
  O  O20  1  0.93483662  0.62578874  0.74835547  1
  O  O21  1  0.06516338  0.37421126  0.25164453  1
  O  O22  1  0.10514503  0.65187552  0.13780741  1
  O  O23  1  0.25164453  0.06516338  0.37421126  1
  O  O24  1  0.65187552  0.13780741  0.10514503  1
  O  O25  1  0.57010489  0.31290341  0.34214507  1
  F  F26  1  0.64353010  0.43911945  0.09974374  1
  F  F27  1  0.90025626  0.35646990  0.56088055  1
  F  F28  1  0.56088055  0.90025626  0.35646990  1
  F  F29  1  0.09974374  0.64353010  0.43911945  1
  F  F30  1  0.35646990  0.56088055  0.90025626  1
  F  F31  1  0.43911945  0.09974374  0.64353010  1
