# generated using pymatgen
data_P2Pb3O8
_symmetry_space_group_name_H-M   'P 1'
_cell_length_a   7.48648342
_cell_length_b   7.48648342
_cell_length_c   9.34203205
_cell_angle_alpha   78.87625260
_cell_angle_beta   78.87625260
_cell_angle_gamma   45.89943616
_symmetry_Int_Tables_number   1
_chemical_formula_structural   P2Pb3O8
_chemical_formula_sum   'P4 Pb6 O16'
_cell_volume   367.66009851
_cell_formula_units_Z   2
loop_
 _symmetry_equiv_pos_site_id
 _symmetry_equiv_pos_as_xyz
  1  'x, y, z'
loop_
 _atom_site_type_symbol
 _atom_site_label
 _atom_site_symmetry_multiplicity
 _atom_site_fract_x
 _atom_site_fract_y
 _atom_site_fract_z
 _atom_site_occupancy
  P  P0  1  0.14801596  0.65071242  0.44538343  1
  P  P1  1  0.34928758  0.85198404  0.05461657  1
  P  P2  1  0.85198404  0.34928758  0.55461657  1
  P  P3  1  0.65071242  0.14801596  0.94538343  1
  Pb  Pb4  1  0.70100359  0.29899641  0.25000000  1
  Pb  Pb5  1  0.29899641  0.70100359  0.75000000  1
  Pb  Pb6  1  0.36154958  0.00374739  0.34801231  1
  Pb  Pb7  1  0.99625261  0.63845042  0.15198769  1
  Pb  Pb8  1  0.63845042  0.99625261  0.65198769  1
  Pb  Pb9  1  0.00374739  0.36154958  0.84801231  1
  O  O10  1  0.28565355  0.73896805  0.42122366  1
  O  O11  1  0.26103195  0.71434645  0.07877634  1
  O  O12  1  0.71434645  0.26103195  0.57877634  1
  O  O13  1  0.73896805  0.28565355  0.92122366  1
  O  O14  1  0.31453112  0.39615537  0.38320747  1
  O  O15  1  0.60384463  0.68546888  0.11679253  1
  O  O16  1  0.68546888  0.60384463  0.61679253  1
  O  O17  1  0.39615537  0.31453112  0.88320747  1
  O  O18  1  0.90113722  0.83877417  0.36821088  1
  O  O19  1  0.16122583  0.09886278  0.13178912  1
  O  O20  1  0.09886278  0.16122583  0.63178912  1
  O  O21  1  0.83877417  0.90113722  0.86821088  1
  O  O22  1  0.07721364  0.63643754  0.61177915  1
  O  O23  1  0.36356246  0.92278636  0.88822085  1
  O  O24  1  0.92278636  0.36356246  0.38822085  1
  O  O25  1  0.63643754  0.07721364  0.11177915  1
