# generated using pymatgen
data_MnBiS2Br
_symmetry_space_group_name_H-M   'P 1'
_cell_length_a   3.94346200
_cell_length_b   6.68177586
_cell_length_c   9.52838945
_cell_angle_alpha   91.42820007
_cell_angle_beta   90.00000000
_cell_angle_gamma   107.16298596
_symmetry_Int_Tables_number   1
_chemical_formula_structural   MnBiS2Br
_chemical_formula_sum   'Mn2 Bi2 S4 Br2'
_cell_volume   239.80483748
_cell_formula_units_Z   2
loop_
 _symmetry_equiv_pos_site_id
 _symmetry_equiv_pos_as_xyz
  1  'x, y, z'
loop_
 _atom_site_type_symbol
 _atom_site_label
 _atom_site_symmetry_multiplicity
 _atom_site_fract_x
 _atom_site_fract_y
 _atom_site_fract_z
 _atom_site_occupancy
  Mn  Mn0  1  0.50000000  0.00000000  0.00000000  1
  Mn  Mn1  1  0.50000000  0.00000000  0.50000000  1
  Bi  Bi2  1  0.21453000  0.42906000  0.80314800  1
  Bi  Bi3  1  0.78547000  0.57094000  0.19685200  1
  S  S4  1  0.13604400  0.27208800  0.05352500  1
  S  S5  1  0.57131900  0.14263800  0.75466500  1
  S  S6  1  0.86395600  0.72791200  0.94647500  1
  S  S7  1  0.42868100  0.85736200  0.24533500  1
  Br  Br8  1  0.13426200  0.26852400  0.43395600  1
  Br  Br9  1  0.86573800  0.73147600  0.56604400  1
