# generated using pymatgen
data_Na3FeO3
_symmetry_space_group_name_H-M   'P 1'
_cell_length_a   8.44409086
_cell_length_b   8.44409086
_cell_length_c   6.09830739
_cell_angle_alpha   69.47518548
_cell_angle_beta   69.47518548
_cell_angle_gamma   77.68671220
_symmetry_Int_Tables_number   1
_chemical_formula_structural   Na3FeO3
_chemical_formula_sum   'Na12 Fe4 O12'
_cell_volume   379.34481408
_cell_formula_units_Z   4
loop_
 _symmetry_equiv_pos_site_id
 _symmetry_equiv_pos_as_xyz
  1  'x, y, z'
loop_
 _atom_site_type_symbol
 _atom_site_label
 _atom_site_symmetry_multiplicity
 _atom_site_fract_x
 _atom_site_fract_y
 _atom_site_fract_z
 _atom_site_occupancy
  Na  Na0  1  0.74767623  0.79409262  0.61930846  1
  Na  Na1  1  0.64853930  0.17296626  0.48252659  1
  Na  Na2  1  0.79409262  0.74767623  0.11930846  1
  Na  Na3  1  0.27774364  0.22990287  0.03002625  1
  Na  Na4  1  0.98032596  0.03803692  0.77700054  1
  Na  Na5  1  0.94044203  0.36329503  0.00036492  1
  Na  Na6  1  0.22990287  0.27774364  0.53002625  1
  Na  Na7  1  0.03803692  0.98032596  0.27700054  1
  Na  Na8  1  0.36329503  0.94044203  0.50036492  1
  Na  Na9  1  0.56359840  0.47591037  0.05226536  1
  Na  Na10  1  0.47591037  0.56359840  0.55226536  1
  Na  Na11  1  0.17296626  0.64853930  0.98252659  1
  Fe  Fe12  1  0.64616624  0.12210888  0.04369266  1
  Fe  Fe13  1  0.40068698  0.87713168  0.96861062  1
  Fe  Fe14  1  0.87713168  0.40068698  0.46861062  1
  Fe  Fe15  1  0.12210888  0.64616624  0.54369266  1
  O  O16  1  0.31133327  0.77227219  0.31310907  1
  O  O17  1  0.60147249  0.98857652  0.87896775  1
  O  O18  1  0.71756508  0.46591550  0.29745795  1
  O  O19  1  0.98857652  0.60147249  0.37896775  1
  O  O20  1  0.77227219  0.31133327  0.81310907  1
  O  O21  1  0.46591550  0.71756508  0.79745795  1
  O  O22  1  0.21223977  0.45700865  0.74561983  1
  O  O23  1  0.03185862  0.22742251  0.36742692  1
  O  O24  1  0.22742251  0.03185862  0.86742692  1
  O  O25  1  0.78329651  0.98753048  0.23106207  1
  O  O26  1  0.45700865  0.21223977  0.24561983  1
  O  O27  1  0.98753048  0.78329651  0.73106207  1
