# generated using pymatgen
data_Ni3(AsO4)2
_symmetry_space_group_name_H-M   'P 1'
_cell_length_a   5.90792339
_cell_length_b   6.36694037
_cell_length_c   8.14589286
_cell_angle_alpha   89.99966777
_cell_angle_beta   90.00006194
_cell_angle_gamma   117.66804821
_symmetry_Int_Tables_number   1
_chemical_formula_structural   Ni3(AsO4)2
_chemical_formula_sum   'Ni6 As4 O16'
_cell_volume   271.37372051
_cell_formula_units_Z   2
loop_
 _symmetry_equiv_pos_site_id
 _symmetry_equiv_pos_as_xyz
  1  'x, y, z'
loop_
 _atom_site_type_symbol
 _atom_site_label
 _atom_site_symmetry_multiplicity
 _atom_site_fract_x
 _atom_site_fract_y
 _atom_site_fract_z
 _atom_site_occupancy
  Ni  Ni0  1  0.50002710  -0.00003080  0.50000810  1
  Ni  Ni1  1  0.11727760  0.73460850  0.24997403  1
  Ni  Ni2  1  0.38259481  0.26540859  0.75005214  1
  Ni  Ni3  1  0.00002481  -0.00003018  -0.00000631  1
  Ni  Ni4  1  0.88259315  0.26540576  0.74994844  1
  Ni  Ni5  1  0.61727827  0.73461115  0.25002754  1
  As  As6  1  0.37518643  0.75078491  0.88424072  1
  As  As7  1  0.62495483  0.24926880  0.11576739  1
  As  As8  1  0.12493761  0.24924452  0.38421975  1
  As  As9  1  0.87518684  0.75078231  0.61576080  1
  O  O10  1  0.25224299  0.50457692  0.76417993  1
  O  O11  1  0.74775392  0.49541940  0.23584269  1
  O  O12  1  0.24775312  0.49541567  0.26415370  1
  O  O13  1  0.75224120  0.50457447  0.73582244  1
  O  O14  1  -0.00186636  -0.00342333  0.74928453  1
  O  O15  1  0.00182545  0.00344052  0.25073221  1
  O  O16  1  0.50182220  0.00343905  0.24927208  1
  O  O17  1  0.49813295  -0.00342381  0.75071603  1
  O  O18  1  0.85985631  0.24174251  -0.00088538  1
  O  O19  1  0.61765801  0.75824454  0.00086965  1
  O  O20  1  0.64014921  0.75822399  0.49922316  1
  O  O21  1  0.88235367  0.24175336  0.50076520  1
  O  O22  1  0.14014098  0.75822393  0.00077847  1
  O  O23  1  0.38234806  0.24175286  0.99923779  1
  O  O24  1  0.35986551  0.24174800  0.50088386  1
  O  O25  1  0.11766335  0.75824038  0.49913106  1
