# generated using pymatgen
data_Er2Te4O11
_symmetry_space_group_name_H-M   'P 1'
_cell_length_a   6.65055706
_cell_length_b   6.65055706
_cell_length_c   16.01144338
_cell_angle_alpha   75.44172366
_cell_angle_beta   75.44172366
_cell_angle_gamma   44.90811761
_symmetry_Int_Tables_number   1
_chemical_formula_structural   Er2Te4O11
_chemical_formula_sum   'Er4 Te8 O22'
_cell_volume   481.11083780
_cell_formula_units_Z   2
loop_
 _symmetry_equiv_pos_site_id
 _symmetry_equiv_pos_as_xyz
  1  'x, y, z'
loop_
 _atom_site_type_symbol
 _atom_site_label
 _atom_site_symmetry_multiplicity
 _atom_site_fract_x
 _atom_site_fract_y
 _atom_site_fract_z
 _atom_site_occupancy
  Er  Er0  1  0.63038031  0.13168531  0.03629288  1
  Er  Er1  1  0.36961969  0.86831469  0.96370712  1
  Er  Er2  1  0.13168531  0.63038031  0.53629288  1
  Er  Er3  1  0.86831469  0.36961969  0.46370712  1
  Te  Te4  1  0.84524622  0.40889652  0.12601625  1
  Te  Te5  1  0.15851478  0.59670024  0.19845491  1
  Te  Te6  1  0.59110348  0.15475378  0.37398375  1
  Te  Te7  1  0.84148522  0.40329976  0.80154509  1
  Te  Te8  1  0.59670024  0.15851478  0.69845491  1
  Te  Te9  1  0.15475378  0.59110348  0.87398375  1
  Te  Te10  1  0.40889652  0.84524622  0.62601625  1
  Te  Te11  1  0.40329976  0.84148522  0.30154509  1
  O  O12  1  0.91046535  0.79523904  0.66632856  1
  O  O13  1  0.80987002  0.68350758  0.87356180  1
  O  O14  1  0.19012998  0.31649242  0.12643820  1
  O  O15  1  0.24600327  0.33850064  0.44723562  1
  O  O16  1  0.20476096  0.08953465  0.83367144  1
  O  O17  1  0.31649242  0.19012998  0.62643820  1
  O  O18  1  0.08953465  0.20476096  0.33367144  1
  O  O19  1  0.03679873  0.82325775  0.95569801  1
  O  O20  1  0.82325775  0.03679873  0.45569801  1
  O  O21  1  0.33850064  0.24600327  0.94723562  1
  O  O22  1  0.66149936  0.75399673  0.05276438  1
  O  O23  1  0.84967367  0.15032633  0.75000000  1
  O  O24  1  0.39758795  0.55480316  0.09490630  1
  O  O25  1  0.68350758  0.80987002  0.37356180  1
  O  O26  1  0.60241205  0.44519684  0.90509370  1
  O  O27  1  0.55480316  0.39758795  0.59490630  1
  O  O28  1  0.15032633  0.84967367  0.25000000  1
  O  O29  1  0.44519684  0.60241205  0.40509370  1
  O  O30  1  0.75399673  0.66149936  0.55276438  1
  O  O31  1  0.17674225  0.96320127  0.54430199  1
  O  O32  1  0.96320127  0.17674225  0.04430199  1
  O  O33  1  0.79523904  0.91046535  0.16632856  1
