# generated using pymatgen
data_Li2Pr(NO3)5
_symmetry_space_group_name_H-M   'P 1'
_cell_length_a   8.93996956
_cell_length_b   10.45932374
_cell_length_c   11.64053922
_cell_angle_alpha   90.00000000
_cell_angle_beta   90.00000000
_cell_angle_gamma   90.00000000
_symmetry_Int_Tables_number   1
_chemical_formula_structural   Li2Pr(NO3)5
_chemical_formula_sum   'Li8 Pr4 N20 O60'
_cell_volume   1088.46067766
_cell_formula_units_Z   4
loop_
 _symmetry_equiv_pos_site_id
 _symmetry_equiv_pos_as_xyz
  1  'x, y, z'
loop_
 _atom_site_type_symbol
 _atom_site_label
 _atom_site_symmetry_multiplicity
 _atom_site_fract_x
 _atom_site_fract_y
 _atom_site_fract_z
 _atom_site_occupancy
  Li  Li0  1  0.61898806  0.77262953  0.81959348  1
  Li  Li1  1  0.38101194  0.22737047  0.18040652  1
  Li  Li2  1  0.11898806  0.72737047  0.31959348  1
  Li  Li3  1  0.38101194  0.22737047  0.81959348  1
  Li  Li4  1  0.11898806  0.72737047  0.68040652  1
  Li  Li5  1  0.88101194  0.27262953  0.31959348  1
  Li  Li6  1  0.88101194  0.27262953  0.68040652  1
  Li  Li7  1  0.61898806  0.77262953  0.18040652  1
  Pr  Pr8  1  0.00000000  0.50000000  -0.00000000  1
  Pr  Pr9  1  0.00000000  -0.00000000  -0.00000000  1
  Pr  Pr10  1  0.50000000  0.50000000  0.50000000  1
  Pr  Pr11  1  0.50000000  -0.00000000  0.50000000  1
  N  N12  1  0.60070060  0.34300782  0.70944029  1
  N  N13  1  0.39929940  0.65699218  0.29055971  1
  N  N14  1  0.89929940  0.84300782  0.20944029  1
  N  N15  1  0.50000000  -0.00000000  0.76173914  1
  N  N16  1  0.67364727  0.75108226  0.50000000  1
  N  N17  1  0.17364727  0.74891774  -0.00000000  1
  N  N18  1  0.10070060  0.15699218  0.79055971  1
  N  N19  1  0.00000000  0.50000000  0.73826086  1
  N  N20  1  0.70791956  0.64950885  -0.00000000  1
  N  N21  1  0.00000000  0.50000000  0.26173914  1
  N  N22  1  0.20791956  0.85049115  0.50000000  1
  N  N23  1  0.50000000  -0.00000000  0.23826086  1
  N  N24  1  0.29208044  0.35049115  -0.00000000  1
  N  N25  1  0.10070060  0.15699218  0.20944029  1
  N  N26  1  0.82635273  0.25108226  -0.00000000  1
  N  N27  1  0.79208044  0.14950885  0.50000000  1
  N  N28  1  0.39929940  0.65699218  0.70944029  1
  N  N29  1  0.60070060  0.34300782  0.29055971  1
  N  N30  1  0.89929940  0.84300782  0.79055971  1
  N  N31  1  0.32635273  0.24891774  0.50000000  1
  O  O32  1  0.46336580  0.37247921  0.70215856  1
  O  O33  1  0.96336580  0.12752079  0.20215856  1
  O  O34  1  0.94135686  0.40921248  0.20322791  1
  O  O35  1  0.09803030  0.77690546  0.50000000  1
  O  O36  1  0.81045782  0.88578789  0.86770268  1
  O  O37  1  0.94135686  0.40921248  0.79677209  1
  O  O38  1  0.85272080  0.77280750  0.28663503  1
  O  O39  1  0.50000000  -0.00000000  0.86656919  1
  O  O40  1  0.23405636  0.38696691  0.09354948  1
  O  O41  1  0.73405636  0.11303309  0.40645052  1
  O  O42  1  0.35272080  0.72719250  0.21336497  1
  O  O43  1  0.85272080  0.77280750  0.71336497  1
  O  O44  1  0.03663420  0.87247921  0.20215856  1
  O  O45  1  0.35272080  0.72719250  0.78663503  1
  O  O46  1  0.53663420  0.62752079  0.70215856  1
  O  O47  1  0.05864314  0.59078752  0.79677209  1
  O  O48  1  0.00000000  0.50000000  0.63343081  1
  O  O49  1  0.23405636  0.38696691  0.90645052  1
  O  O50  1  0.76594364  0.61303309  0.90645052  1
  O  O51  1  0.31045782  0.61421211  0.63229732  1
  O  O52  1  0.03663420  0.87247921  0.79784144  1
  O  O53  1  0.81045782  0.88578789  0.13229732  1
  O  O54  1  0.96336580  0.12752079  0.79784144  1
  O  O55  1  0.76594364  0.61303309  0.09354948  1
  O  O56  1  0.55864314  0.90921248  0.70322791  1
  O  O57  1  0.26594364  0.88696691  0.40645052  1
  O  O58  1  0.52861236  0.75271781  0.50000000  1
  O  O59  1  0.00000000  0.50000000  0.36656919  1
  O  O60  1  0.68954218  0.38578789  0.36770268  1
  O  O61  1  0.14727920  0.22719250  0.71336497  1
  O  O62  1  0.53663420  0.62752079  0.29784144  1
  O  O63  1  0.26021914  0.14466021  0.50000000  1
  O  O64  1  0.44135686  0.09078752  0.29677209  1
  O  O65  1  0.76021914  0.35533979  -0.00000000  1
  O  O66  1  0.14727920  0.22719250  0.28663503  1
  O  O67  1  0.59803030  0.72309454  -0.00000000  1
  O  O68  1  0.47138764  0.24728219  0.50000000  1
  O  O69  1  0.44135686  0.09078752  0.70322791  1
  O  O70  1  0.18954218  0.11421211  0.13229732  1
  O  O71  1  0.73726870  0.64530312  0.50000000  1
  O  O72  1  0.18954218  0.11421211  0.86770268  1
  O  O73  1  0.76273130  0.14530312  -0.00000000  1
  O  O74  1  0.64727920  0.27280750  0.21336497  1
  O  O75  1  0.05864314  0.59078752  0.20322791  1
  O  O76  1  0.73405636  0.11303309  0.59354948  1
  O  O77  1  0.40196970  0.27690546  -0.00000000  1
  O  O78  1  0.46336580  0.37247921  0.29784144  1
  O  O79  1  0.55864314  0.90921248  0.29677209  1
  O  O80  1  0.31045782  0.61421211  0.36770268  1
  O  O81  1  0.02861236  0.74728219  -0.00000000  1
  O  O82  1  0.50000000  -0.00000000  0.13343081  1
  O  O83  1  0.23978086  0.64466021  -0.00000000  1
  O  O84  1  0.97138764  0.25271781  -0.00000000  1
  O  O85  1  0.64727920  0.27280750  0.78663503  1
  O  O86  1  0.73978086  0.85533979  0.50000000  1
  O  O87  1  0.26594364  0.88696691  0.59354948  1
  O  O88  1  0.90196970  0.22309454  0.50000000  1
  O  O89  1  0.23726870  0.85469688  -0.00000000  1
  O  O90  1  0.68954218  0.38578789  0.63229732  1
  O  O91  1  0.26273130  0.35469688  0.50000000  1
