# generated using pymatgen
data_Er3CuSiS7
_symmetry_space_group_name_H-M   'P 1'
_cell_length_a   9.76887420
_cell_length_b   9.76887419
_cell_length_c   5.67962640
_cell_angle_alpha   90.00000000
_cell_angle_beta   90.00000000
_cell_angle_gamma   119.99999719
_symmetry_Int_Tables_number   1
_chemical_formula_structural   Er3CuSiS7
_chemical_formula_sum   'Er6 Cu2 Si2 S14'
_cell_volume   469.39606735
_cell_formula_units_Z   2
loop_
 _symmetry_equiv_pos_site_id
 _symmetry_equiv_pos_as_xyz
  1  'x, y, z'
loop_
 _atom_site_type_symbol
 _atom_site_label
 _atom_site_symmetry_multiplicity
 _atom_site_fract_x
 _atom_site_fract_y
 _atom_site_fract_z
 _atom_site_occupancy
  Er  Er0  1  0.13115835  0.35765944  0.74454266  1
  Er  Er1  1  0.77349891  0.13115835  0.24454266  1
  Er  Er2  1  0.86884165  0.64234056  0.24454266  1
  Er  Er3  1  0.35765944  0.22650109  0.24454266  1
  Er  Er4  1  0.22650109  0.86884165  0.74454266  1
  Er  Er5  1  0.64234056  0.77349891  0.74454266  1
  Cu  Cu6  1  0.00000000  0.00000000  0.19262781  1
  Cu  Cu7  1  0.00000000  0.00000000  0.69262781  1
  Si  Si8  1  0.66666700  0.33333300  0.83365113  1
  Si  Si9  1  0.33333300  0.66666700  0.33365113  1
  S  S10  1  0.41856900  0.52346349  0.48398182  1
  S  S11  1  0.25896363  0.16150576  0.71029727  1
  S  S12  1  0.47653651  0.89510651  0.48398182  1
  S  S13  1  0.10489349  0.58143100  0.48398182  1
  S  S14  1  0.58143100  0.47653651  0.98398182  1
  S  S15  1  0.74103637  0.83849424  0.21029727  1
  S  S16  1  0.90254113  0.74103637  0.71029727  1
  S  S17  1  0.52346349  0.10489349  0.98398182  1
  S  S18  1  0.83849424  0.09745887  0.71029727  1
  S  S19  1  0.16150576  0.90254113  0.21029727  1
  S  S20  1  0.09745887  0.25896363  0.21029727  1
  S  S21  1  0.89510651  0.41856900  0.98398182  1
  S  S22  1  0.66666700  0.33333300  0.46383280  1
  S  S23  1  0.33333300  0.66666700  0.96383280  1
