# generated using pymatgen
data_Na3AsS3
_symmetry_space_group_name_H-M   'P 1'
_cell_length_a   8.51532417
_cell_length_b   8.51532417
_cell_length_c   8.51532417
_cell_angle_alpha   90.00000000
_cell_angle_beta   90.00000000
_cell_angle_gamma   90.00000000
_symmetry_Int_Tables_number   1
_chemical_formula_structural   Na3AsS3
_chemical_formula_sum   'Na12 As4 S12'
_cell_volume   617.45250562
_cell_formula_units_Z   4
loop_
 _symmetry_equiv_pos_site_id
 _symmetry_equiv_pos_as_xyz
  1  'x, y, z'
loop_
 _atom_site_type_symbol
 _atom_site_label
 _atom_site_symmetry_multiplicity
 _atom_site_fract_x
 _atom_site_fract_y
 _atom_site_fract_z
 _atom_site_occupancy
  Na  Na0  1  0.58078131  0.58078131  0.58078131  1
  Na  Na1  1  0.91921869  0.41921869  0.08078131  1
  Na  Na2  1  0.08078131  0.91921869  0.41921869  1
  Na  Na3  1  0.41921869  0.08078131  0.91921869  1
  Na  Na4  1  0.31743040  0.31743040  0.31743040  1
  Na  Na5  1  0.18256960  0.68256960  0.81743040  1
  Na  Na6  1  0.81743040  0.18256960  0.68256960  1
  Na  Na7  1  0.68256960  0.81743040  0.18256960  1
  Na  Na8  1  0.81059393  0.81059393  0.81059393  1
  Na  Na9  1  0.68940607  0.18940607  0.31059393  1
  Na  Na10  1  0.31059393  0.68940607  0.18940607  1
  Na  Na11  1  0.18940607  0.31059393  0.68940607  1
  As  As12  1  0.97227843  0.52772157  0.47227843  1
  As  As13  1  0.47227843  0.97227843  0.52772157  1
  As  As14  1  0.02772157  0.02772157  0.02772157  1
  As  As15  1  0.52772157  0.47227843  0.97227843  1
  S  S16  1  0.77494080  0.10502267  0.00123722  1
  S  S17  1  0.72505920  0.89497733  0.50123722  1
  S  S18  1  0.27494080  0.39497733  0.99876278  1
  S  S19  1  0.10502267  0.00123722  0.77494080  1
  S  S20  1  0.22505920  0.60502267  0.49876278  1
  S  S21  1  0.49876278  0.22505920  0.60502267  1
  S  S22  1  0.60502267  0.49876278  0.22505920  1
  S  S23  1  0.89497733  0.50123722  0.72505920  1
  S  S24  1  0.99876278  0.27494080  0.39497733  1
  S  S25  1  0.39497733  0.99876278  0.27494080  1
  S  S26  1  0.00123722  0.77494080  0.10502267  1
  S  S27  1  0.50123722  0.72505920  0.89497733  1
