# generated using pymatgen
data_La3S3N
_symmetry_space_group_name_H-M   'P 1'
_cell_length_a   4.17128915
_cell_length_b   12.24028607
_cell_length_c   13.25564451
_cell_angle_alpha   90.00000000
_cell_angle_beta   90.00000000
_cell_angle_gamma   90.00000000
_symmetry_Int_Tables_number   1
_chemical_formula_structural   La3S3N
_chemical_formula_sum   'La12 S12 N4'
_cell_volume   676.80368142
_cell_formula_units_Z   4
loop_
 _symmetry_equiv_pos_site_id
 _symmetry_equiv_pos_as_xyz
  1  'x, y, z'
loop_
 _atom_site_type_symbol
 _atom_site_label
 _atom_site_symmetry_multiplicity
 _atom_site_fract_x
 _atom_site_fract_y
 _atom_site_fract_z
 _atom_site_occupancy
  La  La0  1  0.75000000  0.40489137  0.87439882  1
  La  La1  1  0.75000000  0.27114452  0.62990407  1
  La  La2  1  0.25000000  0.22885548  0.12990407  1
  La  La3  1  0.25000000  0.09510863  0.37439882  1
  La  La4  1  0.75000000  0.96613294  0.15282108  1
  La  La5  1  0.75000000  0.46613294  0.34717892  1
  La  La6  1  0.25000000  0.72885548  0.37009593  1
  La  La7  1  0.75000000  0.77114452  0.87009593  1
  La  La8  1  0.25000000  0.53386706  0.65282108  1
  La  La9  1  0.75000000  0.90489137  0.62560118  1
  La  La10  1  0.25000000  0.59510863  0.12560118  1
  La  La11  1  0.25000000  0.03386706  0.84717892  1
  S  S12  1  0.25000000  0.26572541  0.79493783  1
  S  S13  1  0.25000000  0.57166831  0.89290190  1
  S  S14  1  0.25000000  0.85546995  0.00159140  1
  S  S15  1  0.75000000  0.73427459  0.20506217  1
  S  S16  1  0.75000000  0.14453005  0.99840860  1
  S  S17  1  0.75000000  0.92833169  0.39290190  1
  S  S18  1  0.25000000  0.76572541  0.70506217  1
  S  S19  1  0.75000000  0.64453005  0.50159140  1
  S  S20  1  0.25000000  0.35546995  0.49840860  1
  S  S21  1  0.75000000  0.42833169  0.10709810  1
  S  S22  1  0.25000000  0.07166831  0.60709810  1
  S  S23  1  0.75000000  0.23427459  0.29493783  1
  N  N24  1  0.75000000  0.94506803  0.79803935  1
  N  N25  1  0.25000000  0.55493197  0.29803935  1
  N  N26  1  0.75000000  0.44506803  0.70196065  1
  N  N27  1  0.25000000  0.05493197  0.20196065  1
