# generated using pymatgen
data_Lu2WO6
_symmetry_space_group_name_H-M   'P 1'
_cell_length_a   5.22658457
_cell_length_b   7.49100569
_cell_length_c   11.14422560
_cell_angle_alpha   75.14039409
_cell_angle_beta   90.00000000
_cell_angle_gamma   90.00000000
_symmetry_Int_Tables_number   1
_chemical_formula_structural   Lu2WO6
_chemical_formula_sum   'Lu8 W4 O24'
_cell_volume   421.73100314
_cell_formula_units_Z   4
loop_
 _symmetry_equiv_pos_site_id
 _symmetry_equiv_pos_as_xyz
  1  'x, y, z'
loop_
 _atom_site_type_symbol
 _atom_site_label
 _atom_site_symmetry_multiplicity
 _atom_site_fract_x
 _atom_site_fract_y
 _atom_site_fract_z
 _atom_site_occupancy
  Lu  Lu0  1  0.26026707  0.00000000  0.75000000  1
  Lu  Lu1  1  0.18301616  0.79608490  0.07899254  1
  Lu  Lu2  1  0.18301616  0.20391510  0.42100746  1
  Lu  Lu3  1  0.73973293  0.00000000  0.25000000  1
  Lu  Lu4  1  0.31625960  0.50000000  0.75000000  1
  Lu  Lu5  1  0.81698384  0.20391510  0.92100746  1
  Lu  Lu6  1  0.81698384  0.79608490  0.57899254  1
  Lu  Lu7  1  0.68374040  0.50000000  0.25000000  1
  W  W8  1  0.74405246  0.72193331  0.88643116  1
  W  W9  1  0.25594754  0.72193331  0.38643116  1
  W  W10  1  0.74405246  0.27806669  0.61356884  1
  W  W11  1  0.25594754  0.27806669  0.11356884  1
  O  O12  1  0.53714867  0.15182211  0.06943835  1
  O  O13  1  0.04006951  0.05915429  0.10399409  1
  O  O14  1  0.02095657  0.71125702  0.76979940  1
  O  O15  1  0.46285133  0.15182211  0.56943835  1
  O  O16  1  0.35890315  0.48620652  0.38521985  1
  O  O17  1  0.95993049  0.05915429  0.60399409  1
  O  O18  1  0.53705608  0.79147634  0.72473648  1
  O  O19  1  0.46294392  0.79147634  0.22473648  1
  O  O20  1  0.15215124  0.63183838  0.55135922  1
  O  O21  1  0.04006951  0.94084571  0.39600591  1
  O  O22  1  0.46285133  0.84817789  0.93056165  1
  O  O23  1  0.46294392  0.20852366  0.27526352  1
  O  O24  1  0.84784876  0.36816162  0.44864078  1
  O  O25  1  0.64109685  0.48620652  0.88521985  1
  O  O26  1  0.35890315  0.51379348  0.11478015  1
  O  O27  1  0.95993049  0.94084571  0.89600591  1
  O  O28  1  0.53714867  0.84817789  0.43056165  1
  O  O29  1  0.97904343  0.28874298  0.23020060  1
  O  O30  1  0.53705608  0.20852366  0.77526352  1
  O  O31  1  0.84784876  0.63183838  0.05135922  1
  O  O32  1  0.02095657  0.28874298  0.73020060  1
  O  O33  1  0.15215124  0.36816162  0.94864078  1
  O  O34  1  0.97904343  0.71125702  0.26979940  1
  O  O35  1  0.64109685  0.51379348  0.61478015  1
