# generated using pymatgen
data_K2Mn2P2O7F2
_symmetry_space_group_name_H-M   'P 1'
_cell_length_a   6.88468658
_cell_length_b   10.59697786
_cell_length_c   11.26333470
_cell_angle_alpha   90.00000000
_cell_angle_beta   90.00000000
_cell_angle_gamma   90.00000000
_symmetry_Int_Tables_number   1
_chemical_formula_structural   K2Mn2P2O7F2
_chemical_formula_sum   'K8 Mn8 P8 O28 F8'
_cell_volume   821.73765968
_cell_formula_units_Z   4
loop_
 _symmetry_equiv_pos_site_id
 _symmetry_equiv_pos_as_xyz
  1  'x, y, z'
loop_
 _atom_site_type_symbol
 _atom_site_label
 _atom_site_symmetry_multiplicity
 _atom_site_fract_x
 _atom_site_fract_y
 _atom_site_fract_z
 _atom_site_occupancy
  K  K0  1  0.49866372  0.56408633  0.17319280  1
  K  K1  1  -0.00133628  0.43591367  0.32680720  1
  K  K2  1  0.49866372  0.06408633  0.82680720  1
  K  K3  1  0.50133628  0.43591367  0.82680720  1
  K  K4  1  -0.00133628  0.93591367  0.67319280  1
  K  K5  1  0.00133628  0.56408633  0.67319280  1
  K  K6  1  0.00133628  0.06408633  0.32680720  1
  K  K7  1  0.50133628  0.93591367  0.17319280  1
  Mn  Mn8  1  0.50000000  0.25000000  0.33457970  1
  Mn  Mn9  1  0.50000000  0.75000000  0.66542030  1
  Mn  Mn10  1  0.00000000  0.50000000  0.00000000  1
  Mn  Mn11  1  0.00000000  0.25000000  0.83457970  1
  Mn  Mn12  1  0.00000000  0.00000000  0.00000000  1
  Mn  Mn13  1  0.00000000  0.75000000  0.16542030  1
  Mn  Mn14  1  0.50000000  0.00000000  0.50000000  1
  Mn  Mn15  1  0.50000000  0.50000000  0.50000000  1
  P  P16  1  0.78393739  0.74912322  0.42131713  1
  P  P17  1  0.21606261  0.25087678  0.57868287  1
  P  P18  1  0.28393739  0.25087678  0.07868287  1
  P  P19  1  0.71606261  0.24912322  0.07868287  1
  P  P20  1  0.71606261  0.74912322  0.92131713  1
  P  P21  1  0.78393739  0.24912322  0.57868287  1
  P  P22  1  0.28393739  0.75087678  0.92131713  1
  P  P23  1  0.21606261  0.75087678  0.42131713  1
  O  O24  1  0.00000000  0.75000000  0.48039116  1
  O  O25  1  0.77736914  0.11237149  0.08645435  1
  O  O26  1  0.20120957  0.68719788  0.30110779  1
  O  O27  1  0.67340419  0.32699736  0.48658158  1
  O  O28  1  0.70120957  0.31280212  0.19889221  1
  O  O29  1  0.82659581  0.82699736  0.01341842  1
  O  O30  1  0.72263086  0.11237149  0.58645435  1
  O  O31  1  0.67340419  0.82699736  0.51341842  1
  O  O32  1  0.72263086  0.61237149  0.41354565  1
  O  O33  1  0.50000000  0.75000000  0.98039116  1
  O  O34  1  0.32659581  0.67300264  0.51341842  1
  O  O35  1  0.27736914  0.88762851  0.41354565  1
  O  O36  1  0.22263086  0.38762851  0.08645435  1
  O  O37  1  0.17340419  0.67300264  0.01341842  1
  O  O38  1  0.32659581  0.17300264  0.48658158  1
  O  O39  1  0.70120957  0.81280212  0.80110779  1
  O  O40  1  0.79879043  0.31280212  0.69889221  1
  O  O41  1  0.00000000  0.25000000  0.51960884  1
  O  O42  1  0.29879043  0.18719788  0.19889221  1
  O  O43  1  0.29879043  0.68719788  0.80110779  1
  O  O44  1  0.27736914  0.38762851  0.58645435  1
  O  O45  1  0.20120957  0.18719788  0.69889221  1
  O  O46  1  0.82659581  0.32699736  0.98658158  1
  O  O47  1  0.50000000  0.25000000  0.01960884  1
  O  O48  1  0.79879043  0.81280212  0.30110779  1
  O  O49  1  0.77736914  0.61237149  0.91354565  1
  O  O50  1  0.22263086  0.88762851  0.91354565  1
  O  O51  1  0.17340419  0.17300264  0.98658158  1
  F  F52  1  0.12165664  0.92830805  0.15580128  1
  F  F53  1  0.37834336  0.92830805  0.65580128  1
  F  F54  1  0.37834336  0.42830805  0.34419872  1
  F  F55  1  0.87834336  0.07169195  0.84419872  1
  F  F56  1  0.12165664  0.42830805  0.84419872  1
  F  F57  1  0.62165664  0.07169195  0.34419872  1
  F  F58  1  0.62165664  0.57169195  0.65580128  1
  F  F59  1  0.87834336  0.57169195  0.15580128  1
