# generated using pymatgen
data_Ca4TiN4
_symmetry_space_group_name_H-M   'P 1'
_cell_length_a   5.98416738
_cell_length_b   6.02358300
_cell_length_c   8.97972950
_cell_angle_alpha   71.67327669
_cell_angle_beta   79.46258877
_cell_angle_gamma   68.01418844
_symmetry_Int_Tables_number   1
_chemical_formula_structural   Ca4TiN4
_chemical_formula_sum   'Ca8 Ti2 N8'
_cell_volume   284.13965142
_cell_formula_units_Z   2
loop_
 _symmetry_equiv_pos_site_id
 _symmetry_equiv_pos_as_xyz
  1  'x, y, z'
loop_
 _atom_site_type_symbol
 _atom_site_label
 _atom_site_symmetry_multiplicity
 _atom_site_fract_x
 _atom_site_fract_y
 _atom_site_fract_z
 _atom_site_occupancy
  Ca  Ca0  1  0.23534515  0.95451874  0.60717960  1
  Ca  Ca1  1  0.77408415  0.57770167  0.17626194  1
  Ca  Ca2  1  0.73752813  0.22872504  0.98085612  1
  Ca  Ca3  1  0.27111296  0.51939776  0.42711726  1
  Ca  Ca4  1  0.76465485  0.04548126  0.39282040  1
  Ca  Ca5  1  0.22591585  0.42229833  0.82373806  1
  Ca  Ca6  1  0.72888704  0.48060224  0.57288274  1
  Ca  Ca7  1  0.26247187  0.77127496  0.01914388  1
  Ti  Ti8  1  0.71582131  0.84793307  0.75598347  1
  Ti  Ti9  1  0.28417869  0.15206693  0.24401653  1
  N  N10  1  0.97040895  0.70874663  0.60939605  1
  N  N11  1  0.51213063  0.17588115  0.63693536  1
  N  N12  1  0.02959105  0.29125337  0.39060395  1
  N  N13  1  0.51832594  0.63469434  0.80402962  1
  N  N14  1  0.11617452  0.16841184  0.07320792  1
  N  N15  1  0.48786937  0.82411885  0.36306464  1
  N  N16  1  0.48167406  0.36530566  0.19597038  1
  N  N17  1  0.88382548  0.83158816  0.92679208  1
