# generated using pymatgen
data_Na2TiF6
_symmetry_space_group_name_H-M   'P 1'
_cell_length_a   9.13376577
_cell_length_b   9.13356479
_cell_length_c   5.03101814
_cell_angle_alpha   90.00272471
_cell_angle_beta   89.99893987
_cell_angle_gamma   119.99755366
_symmetry_Int_Tables_number   1
_chemical_formula_structural   Na2TiF6
_chemical_formula_sum   'Na6 Ti3 F18'
_cell_volume   363.48576206
_cell_formula_units_Z   3
loop_
 _symmetry_equiv_pos_site_id
 _symmetry_equiv_pos_as_xyz
  1  'x, y, z'
loop_
 _atom_site_type_symbol
 _atom_site_label
 _atom_site_symmetry_multiplicity
 _atom_site_fract_x
 _atom_site_fract_y
 _atom_site_fract_z
 _atom_site_occupancy
  Na  Na0  1  0.62823572  0.00008241  -0.00011496  1
  Na  Na1  1  0.37187738  0.37189222  0.00004024  1
  Na  Na2  1  0.29227336  0.00009100  0.49988547  1
  Na  Na3  1  0.00007832  0.29220945  0.50014255  1
  Na  Na4  1  0.70758089  0.70761807  0.49994059  1
  Na  Na5  1  0.00003498  0.62818331  0.00009355  1
  Ti  Ti6  1  0.66675113  0.33334388  0.50316311  1
  Ti  Ti7  1  0.33328272  0.66673975  0.49685994  1
  Ti  Ti8  1  -0.00002961  -0.00008585  -0.00000506  1
  F  F9  1  0.47165134  0.24822254  0.29068829  1
  F  F10  1  0.19428971  0.11083884  0.78716163  1
  F  F11  1  0.45195590  0.59157946  0.28398870  1
  F  F12  1  0.24816347  0.47166622  0.70932862  1
  F  F13  1  0.13950172  0.54803148  0.28406770  1
  F  F14  1  0.80565038  0.91651249  0.21278079  1
  F  F15  1  0.08334406  0.88899541  0.21275904  1
  F  F16  1  0.91657067  0.80560219  0.78720019  1
  F  F17  1  0.11086597  0.19424412  0.21285662  1
  F  F18  1  0.22337377  0.75191570  0.70918304  1
  F  F19  1  0.88905679  0.08331652  0.78720328  1
  F  F20  1  0.59159856  0.45203753  0.71601131  1
  F  F21  1  0.40835951  0.86048073  0.28409530  1
  F  F22  1  0.77670077  0.52843335  0.29067014  1
  F  F23  1  0.54804601  0.13953021  0.71596675  1
  F  F24  1  0.86051534  0.40842268  0.71594601  1
  F  F25  1  0.75189232  0.22338571  0.29079118  1
  F  F26  1  0.52838183  0.77671257  0.70929997  1
