# generated using pymatgen
data_Cs3LaCl6
_symmetry_space_group_name_H-M   'P 1'
_cell_length_a   14.33125184
_cell_length_b   14.33125184
_cell_length_c   13.38423116
_cell_angle_alpha   80.68272455
_cell_angle_beta   80.68272455
_cell_angle_gamma   33.93945432
_symmetry_Int_Tables_number   1
_chemical_formula_structural   Cs3LaCl6
_chemical_formula_sum   'Cs12 La4 Cl24'
_cell_volume   1512.61847261
_cell_formula_units_Z   4
loop_
 _symmetry_equiv_pos_site_id
 _symmetry_equiv_pos_as_xyz
  1  'x, y, z'
loop_
 _atom_site_type_symbol
 _atom_site_label
 _atom_site_symmetry_multiplicity
 _atom_site_fract_x
 _atom_site_fract_y
 _atom_site_fract_z
 _atom_site_occupancy
  Cs  Cs0  1  0.65153857  0.02437758  0.80126229  1
  Cs  Cs1  1  0.53166532  0.16134300  0.14549229  1
  Cs  Cs2  1  0.46833468  0.83865700  0.85450771  1
  Cs  Cs3  1  0.97562242  0.34846143  0.69873771  1
  Cs  Cs4  1  0.30359091  0.79740818  0.56700827  1
  Cs  Cs5  1  0.34846143  0.97562242  0.19873771  1
  Cs  Cs6  1  0.83865700  0.46833468  0.35450771  1
  Cs  Cs7  1  0.02437758  0.65153857  0.30126229  1
  Cs  Cs8  1  0.69640909  0.20259182  0.43299173  1
  Cs  Cs9  1  0.20259182  0.69640909  0.93299173  1
  Cs  Cs10  1  0.79740818  0.30359091  0.06700827  1
  Cs  Cs11  1  0.16134300  0.53166532  0.64549229  1
  La  La12  1  0.20793461  0.79206539  0.25000000  1
  La  La13  1  0.50000000  0.00000000  0.50000000  1
  La  La14  1  0.79206539  0.20793461  0.75000000  1
  La  La15  1  -0.00000000  0.50000000  0.00000000  1
  Cl  Cl16  1  0.27768120  0.38198898  0.92040955  1
  Cl  Cl17  1  0.38198898  0.27768120  0.42040955  1
  Cl  Cl18  1  0.01851434  0.10126749  0.29976509  1
  Cl  Cl19  1  0.85878459  0.64085203  0.81000815  1
  Cl  Cl20  1  0.61801102  0.72231880  0.57959045  1
  Cl  Cl21  1  0.10126749  0.01851434  0.79976509  1
  Cl  Cl22  1  0.13632677  0.21578410  0.96539665  1
  Cl  Cl23  1  0.86367323  0.78421590  0.03460335  1
  Cl  Cl24  1  0.72752662  0.15690965  0.94014819  1
  Cl  Cl25  1  0.64085203  0.85878459  0.31000815  1
  Cl  Cl26  1  0.84309035  0.27247338  0.55985181  1
  Cl  Cl27  1  0.62095082  0.49703061  0.82179278  1
  Cl  Cl28  1  0.37904918  0.50296939  0.17820722  1
  Cl  Cl29  1  0.98148566  0.89873251  0.70023491  1
  Cl  Cl30  1  0.78421590  0.86367323  0.53460335  1
  Cl  Cl31  1  0.89873251  0.98148566  0.20023491  1
  Cl  Cl32  1  0.49703061  0.62095082  0.32179278  1
  Cl  Cl33  1  0.27247338  0.84309035  0.05985181  1
  Cl  Cl34  1  0.72231880  0.61801102  0.07959045  1
  Cl  Cl35  1  0.15690965  0.72752662  0.44014819  1
  Cl  Cl36  1  0.50296939  0.37904918  0.67820722  1
  Cl  Cl37  1  0.14121541  0.35914797  0.18999185  1
  Cl  Cl38  1  0.35914797  0.14121541  0.68999185  1
  Cl  Cl39  1  0.21578410  0.13632677  0.46539665  1
