# generated using pymatgen
data_K4MgFe3(PO4)5
_symmetry_space_group_name_H-M   'P 1'
_cell_length_a   9.68265515
_cell_length_b   9.68265515
_cell_length_c   9.52064590
_cell_angle_alpha   89.90425644
_cell_angle_beta   89.90425644
_cell_angle_gamma   89.67122872
_symmetry_Int_Tables_number   1
_chemical_formula_structural   K4MgFe3(PO4)5
_chemical_formula_sum   'K8 Mg2 Fe6 P10 O40'
_cell_volume   892.57966048
_cell_formula_units_Z   2
loop_
 _symmetry_equiv_pos_site_id
 _symmetry_equiv_pos_as_xyz
  1  'x, y, z'
loop_
 _atom_site_type_symbol
 _atom_site_label
 _atom_site_symmetry_multiplicity
 _atom_site_fract_x
 _atom_site_fract_y
 _atom_site_fract_z
 _atom_site_occupancy
  K  K0  1  0.43434920  0.33524254  0.95285729  1
  K  K1  1  0.56879894  0.66643765  0.96195539  1
  K  K2  1  0.92915306  0.17022354  0.54392581  1
  K  K3  1  0.07302211  0.83426562  0.53769197  1
  K  K4  1  0.33524254  0.43434920  0.45285729  1
  K  K5  1  0.66643765  0.56879894  0.46195539  1
  K  K6  1  0.17022354  0.92915306  0.04392581  1
  K  K7  1  0.83426562  0.07302211  0.03769197  1
  Mg  Mg8  1  0.80357269  0.42995306  0.78853901  1
  Mg  Mg9  1  0.42995306  0.80357269  0.28853901  1
  Fe  Fe10  1  0.19056147  0.57126345  0.78833771  1
  Fe  Fe11  1  0.30671820  0.07192858  0.71005398  1
  Fe  Fe12  1  0.69409231  0.92740074  0.71208221  1
  Fe  Fe13  1  0.57126345  0.19056147  0.28833771  1
  Fe  Fe14  1  0.92740074  0.69409231  0.21208221  1
  Fe  Fe15  1  0.07192858  0.30671820  0.21005398  1
  P  P16  1  0.50107169  0.99957756  0.99923339  1
  P  P17  1  0.91783550  0.75000699  0.86675563  1
  P  P18  1  0.07846840  0.25118228  0.86577493  1
  P  P19  1  0.41905096  0.75143135  0.63510130  1
  P  P20  1  0.57680690  0.24811166  0.63362375  1
  P  P21  1  0.99957756  0.50107169  0.49923339  1
  P  P22  1  0.75000699  0.91783550  0.36675563  1
  P  P23  1  0.25118228  0.07846840  0.36577493  1
  P  P24  1  0.24811166  0.57680690  0.13362375  1
  P  P25  1  0.75143135  0.41905096  0.13510130  1
  O  O26  1  0.27785860  0.59031492  0.97646030  1
  O  O27  1  0.71516559  0.41008440  0.98179553  1
  O  O28  1  0.38673146  0.05954598  0.90395424  1
  O  O29  1  0.62166838  0.94529476  0.90809948  1
  O  O30  1  0.82873028  0.62904967  0.82778455  1
  O  O31  1  0.16792946  0.37686112  0.82624809  1
  O  O32  1  0.07078988  0.72467911  0.82595932  1
  O  O33  1  0.92885466  0.27287334  0.82651983  1
  O  O34  1  0.87317358  0.88271455  0.78683863  1
  O  O35  1  0.13195525  0.12232318  0.78539916  1
  O  O36  1  0.36985871  0.62550400  0.72151515  1
  O  O37  1  0.62242739  0.37417260  0.71427932  1
  O  O38  1  0.57079982  0.77769615  0.67734572  1
  O  O39  1  0.42289112  0.22333189  0.66800256  1
  O  O40  1  0.33025878  0.87794613  0.67444190  1
  O  O41  1  0.66203357  0.11914457  0.67364502  1
  O  O42  1  0.11816025  0.55634857  0.59200171  1
  O  O43  1  0.88301672  0.44403994  0.58813698  1
  O  O44  1  0.78529966  0.91053133  0.52361848  1
  O  O45  1  0.21614529  0.09326988  0.52202067  1
  O  O46  1  0.59031492  0.27785860  0.47646030  1
  O  O47  1  0.41008440  0.71516559  0.48179553  1
  O  O48  1  0.94529476  0.62166838  0.40809948  1
  O  O49  1  0.05954598  0.38673146  0.40395424  1
  O  O50  1  0.37686112  0.16792946  0.32624809  1
  O  O51  1  0.62904967  0.82873028  0.32778455  1
  O  O52  1  0.27287334  0.92885466  0.32651983  1
  O  O53  1  0.72467911  0.07078988  0.32595932  1
  O  O54  1  0.88271455  0.87317358  0.28683863  1
  O  O55  1  0.12232318  0.13195525  0.28539916  1
  O  O56  1  0.37417260  0.62242739  0.21427932  1
  O  O57  1  0.62550400  0.36985871  0.22151515  1
  O  O58  1  0.22333189  0.42289112  0.16800256  1
  O  O59  1  0.77769615  0.57079982  0.17734572  1
  O  O60  1  0.11914457  0.66203357  0.17364502  1
  O  O61  1  0.87794613  0.33025878  0.17444190  1
  O  O62  1  0.55634857  0.11816025  0.09200171  1
  O  O63  1  0.44403994  0.88301672  0.08813698  1
  O  O64  1  0.91053133  0.78529966  0.02361848  1
  O  O65  1  0.09326988  0.21614529  0.02202067  1
