# generated using pymatgen
data_Nd5As4(ClO4)3
_symmetry_space_group_name_H-M   'P 1'
_cell_length_a   5.44127742
_cell_length_b   10.27690974
_cell_length_c   16.90226344
_cell_angle_alpha   55.99952330
_cell_angle_beta   90.00000000
_cell_angle_gamma   90.00000000
_symmetry_Int_Tables_number   1
_chemical_formula_structural   Nd5As4(ClO4)3
_chemical_formula_sum   'Nd10 As8 Cl6 O24'
_cell_volume   783.57406557
_cell_formula_units_Z   2
loop_
 _symmetry_equiv_pos_site_id
 _symmetry_equiv_pos_as_xyz
  1  'x, y, z'
loop_
 _atom_site_type_symbol
 _atom_site_label
 _atom_site_symmetry_multiplicity
 _atom_site_fract_x
 _atom_site_fract_y
 _atom_site_fract_z
 _atom_site_occupancy
  Nd  Nd0  1  0.76307057  0.49534847  0.58531938  1
  Nd  Nd1  1  0.74420606  0.84126476  0.96661493  1
  Nd  Nd2  1  0.23692943  0.49534847  0.08531938  1
  Nd  Nd3  1  0.70978869  0.50000000  0.25000000  1
  Nd  Nd4  1  0.74420606  0.15873524  0.53338507  1
  Nd  Nd5  1  0.25579394  0.15873524  0.03338507  1
  Nd  Nd6  1  0.23692943  0.50465153  0.41468062  1
  Nd  Nd7  1  0.29021131  0.50000000  0.75000000  1
  Nd  Nd8  1  0.76307057  0.50465153  0.91468062  1
  Nd  Nd9  1  0.25579394  0.84126476  0.46661493  1
  As  As10  1  0.26125856  0.22866404  0.36203649  1
  As  As11  1  0.73874144  0.22866404  0.86203649  1
  As  As12  1  0.76325801  0.75826783  0.35008554  1
  As  As13  1  0.73874144  0.77133596  0.63796351  1
  As  As14  1  0.23674199  0.75826783  0.85008554  1
  As  As15  1  0.23674199  0.24173217  0.64991446  1
  As  As16  1  0.76325801  0.24173217  0.14991446  1
  As  As17  1  0.26125856  0.77133596  0.13796351  1
  Cl  Cl18  1  0.75427942  0.99414088  0.08219632  1
  Cl  Cl19  1  0.75427942  0.00585912  0.41780368  1
  Cl  Cl20  1  0.74583644  -0.00000000  0.75000000  1
  Cl  Cl21  1  0.25416356  -0.00000000  0.25000000  1
  Cl  Cl22  1  0.24572058  0.99414088  0.58219632  1
  Cl  Cl23  1  0.24572058  0.00585912  0.91780368  1
  O  O24  1  0.48691502  0.32522231  0.56424408  1
  O  O25  1  -0.00067976  0.31363760  0.05574638  1
  O  O26  1  0.00067976  0.31363760  0.55574638  1
  O  O27  1  0.51308498  0.32522231  0.06424408  1
  O  O28  1  0.65510713  0.63815915  0.75706173  1
  O  O29  1  0.17757235  0.59260204  0.84615240  1
  O  O30  1  0.00753924  0.68064327  0.12063955  1
  O  O31  1  0.99246076  0.68064327  0.62063955  1
  O  O32  1  0.00067976  0.68636240  0.94425362  1
  O  O33  1  0.82242765  0.59260204  0.34615240  1
  O  O34  1  0.34489287  0.36184085  0.24293827  1
  O  O35  1  0.99246076  0.31935673  0.87936045  1
  O  O36  1  0.00753924  0.31935673  0.37936045  1
  O  O37  1  -0.00067976  0.68636240  0.44425362  1
  O  O38  1  0.51496486  0.69119369  0.59680684  1
  O  O39  1  0.48691502  0.67477769  0.93575592  1
  O  O40  1  0.48503514  0.30880631  0.40319316  1
  O  O41  1  0.65510713  0.36184085  0.74293827  1
  O  O42  1  0.51308498  0.67477769  0.43575592  1
  O  O43  1  0.17757235  0.40739796  0.65384760  1
  O  O44  1  0.34489287  0.63815915  0.25706173  1
  O  O45  1  0.82242765  0.40739796  0.15384760  1
  O  O46  1  0.51496486  0.30880631  0.90319316  1
  O  O47  1  0.48503514  0.69119369  0.09680684  1
