# generated using pymatgen
data_K2PrH4N5O17
_symmetry_space_group_name_H-M   'P 1'
_cell_length_a   12.20818782
_cell_length_b   11.96317555
_cell_length_c   8.29034827
_cell_angle_alpha   71.54027879
_cell_angle_beta   68.35850356
_cell_angle_gamma   40.10121765
_symmetry_Int_Tables_number   1
_chemical_formula_structural   K2PrH4N5O17
_chemical_formula_sum   'K4 Pr2 H8 N10 O34'
_cell_volume   723.73672497
_cell_formula_units_Z   2
loop_
 _symmetry_equiv_pos_site_id
 _symmetry_equiv_pos_as_xyz
  1  'x, y, z'
loop_
 _atom_site_type_symbol
 _atom_site_label
 _atom_site_symmetry_multiplicity
 _atom_site_fract_x
 _atom_site_fract_y
 _atom_site_fract_z
 _atom_site_occupancy
  K  K0  1  0.67659260  0.52831913  0.35612934  1
  K  K1  1  0.35612934  0.43895893  0.67659260  1
  K  K2  1  0.81104107  0.89387066  0.72168087  1
  K  K3  1  0.72168087  0.57340740  0.81104107  1
  Pr  Pr4  1  0.99929236  0.00070764  0.99929236  1
  Pr  Pr5  1  0.24929236  0.25070764  0.24929236  1
  H  H6  1  0.15447804  0.13966422  0.92946104  1
  H  H7  1  0.92946104  0.77639670  0.15447804  1
  H  H8  1  0.47360330  0.32053896  0.11033578  1
  H  H9  1  0.11033578  0.09552196  0.47360330  1
  H  H10  1  0.16819330  0.11519352  0.74976915  1
  H  H11  1  0.74976915  0.96684404  0.16819330  1
  H  H12  1  0.28315596  0.50023085  0.13480648  1
  H  H13  1  0.13480648  0.08180670  0.28315596  1
  N  N14  1  0.20998896  0.80914711  0.66671718  1
  N  N15  1  0.66671718  0.31414675  0.20998896  1
  N  N16  1  0.93585325  0.58328282  0.44085289  1
  N  N17  1  0.44085289  0.04001104  0.93585325  1
  N  N18  1  0.34104466  0.80868726  0.07536989  1
  N  N19  1  0.07536989  0.77489819  0.34104466  1
  N  N20  1  0.47510181  0.17463011  0.44131274  1
  N  N21  1  0.44131274  0.90895534  0.47510181  1
  N  N22  1  0.74546276  0.25453724  0.74546276  1
  N  N23  1  0.99546276  0.50453724  0.99546276  1
  O  O24  1  0.14104429  0.95871323  0.67270631  1
  O  O25  1  0.67270631  0.22753517  0.14104429  1
  O  O26  1  0.02246483  0.57729369  0.29128677  1
  O  O27  1  0.29128677  0.10895571  0.02246483  1
  O  O28  1  0.16874337  0.75219639  0.80411142  1
  O  O29  1  0.80411142  0.27494882  0.16874337  1
  O  O30  1  0.97505118  0.44588858  0.49780361  1
  O  O31  1  0.49780361  0.08125663  0.97505118  1
  O  O32  1  0.31001710  0.72550708  0.53579990  1
  O  O33  1  0.53579990  0.42867492  0.31001710  1
  O  O34  1  0.82132508  0.71420010  0.52449292  1
  O  O35  1  0.52449292  0.93998290  0.82132508  1
  O  O36  1  0.34471008  0.77245184  0.94464325  1
  O  O37  1  0.94464325  0.93819482  0.34471008  1
  O  O38  1  0.31180518  0.30535675  0.47754816  1
  O  O39  1  0.47754816  0.90528992  0.31180518  1
  O  O40  1  0.19178236  0.93033794  0.16626005  1
  O  O41  1  0.16626005  0.71161964  0.19178236  1
  O  O42  1  0.53838036  0.08373995  0.31966206  1
  O  O43  1  0.31966206  0.05821764  0.53838036  1
  O  O44  1  0.47607783  0.73056217  0.11352745  1
  O  O45  1  0.11352745  0.67983155  0.47607783  1
  O  O46  1  0.57016845  0.13647255  0.51943783  1
  O  O47  1  0.51943783  0.77392217  0.57016845  1
  O  O48  1  0.79701834  0.11154253  0.80193783  1
  O  O49  1  0.80193783  0.28950131  0.79701834  1
  O  O50  1  0.96049869  0.44806217  0.13845747  1
  O  O51  1  0.13845747  0.45298166  0.96049869  1
  O  O52  1  0.64386489  0.35613511  0.64386489  1
  O  O53  1  0.89386489  0.60613511  0.89386489  1
  O  O54  1  0.09065108  0.15565645  0.86419017  1
  O  O55  1  0.86419017  0.88950229  0.09065108  1
  O  O56  1  0.36049771  0.38580983  0.09434355  1
  O  O57  1  0.09434355  0.15934892  0.36049771  1
