# generated using pymatgen
data_Cr(PO3)3
_symmetry_space_group_name_H-M   'P 1'
_cell_length_a   15.24814696
_cell_length_b   6.23214451
_cell_length_c   8.32189754
_cell_angle_alpha   74.03494914
_cell_angle_beta   90.00000000
_cell_angle_gamma   90.00000000
_symmetry_Int_Tables_number   1
_chemical_formula_structural   Cr(PO3)3
_chemical_formula_sum   'Cr4 P12 O36'
_cell_volume   760.31657741
_cell_formula_units_Z   4
loop_
 _symmetry_equiv_pos_site_id
 _symmetry_equiv_pos_as_xyz
  1  'x, y, z'
loop_
 _atom_site_type_symbol
 _atom_site_label
 _atom_site_symmetry_multiplicity
 _atom_site_fract_x
 _atom_site_fract_y
 _atom_site_fract_z
 _atom_site_occupancy
  Cr  Cr0  1  0.63700612  0.11855077  0.12405818  1
  Cr  Cr1  1  0.86299388  0.11855077  0.62405818  1
  Cr  Cr2  1  0.13700612  0.88144923  0.37594182  1
  Cr  Cr3  1  0.36299388  0.88144923  0.87594182  1
  P  P4  1  0.95545371  0.14972291  0.27914006  1
  P  P5  1  0.38720113  0.41219431  0.79196516  1
  P  P6  1  0.61279887  0.58780569  0.20803484  1
  P  P7  1  0.16114726  0.79332228  0.01593014  1
  P  P8  1  0.66114726  0.20667772  0.48406986  1
  P  P9  1  0.11279887  0.41219431  0.29196516  1
  P  P10  1  0.33885274  0.79332228  0.51593014  1
  P  P11  1  0.88720113  0.58780569  0.70803484  1
  P  P12  1  0.45545371  0.85027709  0.22085994  1
  P  P13  1  0.54454629  0.14972291  0.77914006  1
  P  P14  1  0.04454629  0.85027709  0.72085994  1
  P  P15  1  0.83885274  0.20667772  0.98406986  1
  O  O16  1  0.38789038  0.56557211  0.90023965  1
  O  O17  1  0.07481909  0.83745056  0.90471063  1
  O  O18  1  0.92518091  0.16254944  0.09528937  1
  O  O19  1  0.37792434  0.82610184  0.11924405  1
  O  O20  1  0.65197364  0.46447181  0.38661788  1
  O  O21  1  0.57481909  0.16254944  0.59528937  1
  O  O22  1  0.84034217  0.80274099  0.64415989  1
  O  O23  1  0.34034217  0.19725901  0.85584011  1
  O  O24  1  0.84802636  0.46447181  0.88661788  1
  O  O25  1  0.34661314  0.93368833  0.63344398  1
  O  O26  1  0.01082706  0.94633158  0.33990001  1
  O  O27  1  0.87792434  0.17389816  0.38075595  1
  O  O28  1  0.26215669  0.81625024  0.40454140  1
  O  O29  1  0.01417740  0.36873480  0.24598705  1
  O  O30  1  0.98917294  0.05366842  0.66009999  1
  O  O31  1  0.65965783  0.80274099  0.14415989  1
  O  O32  1  0.61210962  0.43442789  0.09976035  1
  O  O33  1  0.15965783  0.19725901  0.35584011  1
  O  O34  1  0.51417740  0.63126520  0.25401295  1
  O  O35  1  0.84661314  0.06631167  0.86655602  1
  O  O36  1  0.76215669  0.18374976  0.09545860  1
  O  O37  1  0.73784331  0.18374976  0.59545860  1
  O  O38  1  0.11210962  0.56557211  0.40023965  1
  O  O39  1  0.48917294  0.94633158  0.83990001  1
  O  O40  1  0.51082706  0.05366842  0.16009999  1
  O  O41  1  0.23784331  0.81625024  0.90454140  1
  O  O42  1  0.15197364  0.53552819  0.11338212  1
  O  O43  1  0.12207566  0.82610184  0.61924405  1
  O  O44  1  0.42518091  0.83745056  0.40471063  1
  O  O45  1  0.98582260  0.63126520  0.75401295  1
  O  O46  1  0.34802636  0.53552819  0.61338212  1
  O  O47  1  0.15338686  0.93368833  0.13344398  1
  O  O48  1  0.62207566  0.17389816  0.88075595  1
  O  O49  1  0.48582260  0.36873480  0.74598705  1
  O  O50  1  0.88789038  0.43442789  0.59976035  1
  O  O51  1  0.65338686  0.06631167  0.36655602  1
