# generated using pymatgen
data_NbIO2
_symmetry_space_group_name_H-M   'P 1'
_cell_length_a   3.80072832
_cell_length_b   3.96684060
_cell_length_c   21.41951638
_cell_angle_alpha   90.00000000
_cell_angle_beta   90.00000000
_cell_angle_gamma   90.00000000
_symmetry_Int_Tables_number   1
_chemical_formula_structural   NbIO2
_chemical_formula_sum   'Nb4 I4 O8'
_cell_volume   322.93955115
_cell_formula_units_Z   4
loop_
 _symmetry_equiv_pos_site_id
 _symmetry_equiv_pos_as_xyz
  1  'x, y, z'
loop_
 _atom_site_type_symbol
 _atom_site_label
 _atom_site_symmetry_multiplicity
 _atom_site_fract_x
 _atom_site_fract_y
 _atom_site_fract_z
 _atom_site_occupancy
  Nb  Nb0  1  0.25000000  0.54683546  0.93435315  1
  Nb  Nb1  1  0.75000000  0.04683546  0.56564685  1
  Nb  Nb2  1  0.75000000  0.45316454  0.06564685  1
  Nb  Nb3  1  0.25000000  0.95316454  0.43435315  1
  I  I4  1  0.25000000  0.99722134  0.67199568  1
  I  I5  1  0.75000000  0.00277866  0.32800432  1
  I  I6  1  0.25000000  0.50277866  0.17199568  1
  I  I7  1  0.75000000  0.49722134  0.82800432  1
  O  O8  1  0.25000000  0.49672904  0.42820253  1
  O  O9  1  0.75000000  0.50327096  0.57179747  1
  O  O10  1  0.25000000  0.00327096  0.92820253  1
  O  O11  1  0.75000000  0.00666902  0.46845561  1
  O  O12  1  0.25000000  0.99333098  0.53154439  1
  O  O13  1  0.25000000  0.50666902  0.03154439  1
  O  O14  1  0.75000000  0.99672904  0.07179747  1
  O  O15  1  0.75000000  0.49333098  0.96845561  1
