# generated using pymatgen
data_Li2PtO3
_symmetry_space_group_name_H-M   'P 1'
_cell_length_a   5.19241407
_cell_length_b   5.19241407
_cell_length_c   28.51969151
_cell_angle_alpha   89.98233377
_cell_angle_beta   89.98233377
_cell_angle_gamma   119.96030284
_symmetry_Int_Tables_number   1
_chemical_formula_structural   Li2PtO3
_chemical_formula_sum   'Li24 Pt12 O36'
_cell_volume   666.17387169
_cell_formula_units_Z   12
loop_
 _symmetry_equiv_pos_site_id
 _symmetry_equiv_pos_as_xyz
  1  'x, y, z'
loop_
 _atom_site_type_symbol
 _atom_site_label
 _atom_site_symmetry_multiplicity
 _atom_site_fract_x
 _atom_site_fract_y
 _atom_site_fract_z
 _atom_site_occupancy
  Li  Li0  1  0.33262289  0.66737711  -0.00000000  1
  Li  Li1  1  0.00799883  0.33764792  0.08340492  1
  Li  Li2  1  0.65953599  0.66290897  0.08363803  1
  Li  Li3  1  0.33377335  0.00153549  0.08322194  1
  Li  Li4  1  0.33121681  0.33039591  0.16634873  1
  Li  Li5  1  0.33685440  0.66371867  0.24992409  1
  Li  Li6  1  0.00349060  0.00315128  0.24966629  1
  Li  Li7  1  0.66370372  0.33682242  0.24991698  1
  Li  Li8  1  0.66675492  0.66673459  0.33301278  1
  Li  Li9  1  0.67032418  0.99608744  0.41627493  1
  Li  Li10  1  0.33483101  0.33481494  0.41671865  1
  Li  Li11  1  0.99612898  0.67029302  0.41627178  1
  Li  Li12  1  0.00002763  0.99997237  0.50000000  1
  Li  Li13  1  0.32970698  0.00387102  0.58372822  1
  Li  Li14  1  0.66518506  0.66516899  0.58328135  1
  Li  Li15  1  0.00391256  0.32967582  0.58372507  1
  Li  Li16  1  0.33326541  0.33324508  0.66698722  1
  Li  Li17  1  0.66317758  0.33629628  0.75008302  1
  Li  Li18  1  0.99684872  0.99650940  0.75033371  1
  Li  Li19  1  0.33628133  0.66314560  0.75007591  1
  Li  Li20  1  0.66960409  0.66878319  0.83365127  1
  Li  Li21  1  0.33709103  0.34046401  0.91636197  1
  Li  Li22  1  0.66235208  0.99200117  0.91659508  1
  Li  Li23  1  -0.00153549  0.66622665  0.91677806  1
  Pt  Pt24  1  0.66667244  0.33332756  -0.00000000  1
  Pt  Pt25  1  0.00002319  0.99997681  -0.00000000  1
  Pt  Pt26  1  0.66673369  0.00015961  0.16657545  1
  Pt  Pt27  1  0.00014103  0.66677242  0.16656846  1
  Pt  Pt28  1  0.00015443  0.33345684  0.33309974  1
  Pt  Pt29  1  0.33351985  0.00013555  0.33309995  1
  Pt  Pt30  1  0.33327278  0.66672722  0.50000000  1
  Pt  Pt31  1  0.66679053  0.33320947  0.50000000  1
  Pt  Pt32  1  0.66654316  -0.00015443  0.66690026  1
  Pt  Pt33  1  -0.00013555  0.66648015  0.66690005  1
  Pt  Pt34  1  0.99984039  0.33326631  0.83342455  1
  Pt  Pt35  1  0.33322758  0.99985897  0.83343154  1
  O  O36  1  0.33270095  0.32042105  0.03948562  1
  O  O37  1  0.67902413  0.01273059  0.03915769  1
  O  O38  1  0.98723778  0.66636208  0.03919183  1
  O  O39  1  0.33331641  0.67937467  0.12709787  1
  O  O40  1  0.67918294  0.33337808  0.12745134  1
  O  O41  1  0.98781373  0.98794208  0.12742191  1
  O  O42  1  0.67991454  0.67947346  0.20603533  1
  O  O43  1  0.98721570  0.33289035  0.20569097  1
  O  O44  1  0.33326372  0.98745129  0.20573248  1
  O  O45  1  0.66652466  0.01262854  0.29397859  1
  O  O46  1  0.01270481  0.66648579  0.29397438  1
  O  O47  1  0.32117828  0.32115339  0.29357105  1
  O  O48  1  0.01266415  0.01262922  0.37263023  1
  O  O49  1  0.32102988  0.66708512  0.37222539  1
  O  O50  1  0.66713015  0.32100268  0.37222663  1
  O  O51  1  0.99981206  0.34610797  0.46078962  1
  O  O52  1  0.34616183  0.99975231  0.46078941  1
  O  O53  1  0.65425247  0.65419569  0.46043043  1
  O  O54  1  0.34580431  0.34574753  0.53956957  1
  O  O55  1  0.65389203  0.00018794  0.53921038  1
  O  O56  1  0.00024769  0.65383817  0.53921059  1
  O  O57  1  0.67899732  0.33286985  0.62777337  1
  O  O58  1  0.33291488  0.67897012  0.62777461  1
  O  O59  1  0.98737078  0.98733585  0.62736977  1
  O  O60  1  0.67884661  0.67882172  0.70642895  1
  O  O61  1  0.33351421  0.98729519  0.70602562  1
  O  O62  1  0.98737146  0.33347534  0.70602141  1
  O  O63  1  0.01254871  0.66673628  0.79426752  1
  O  O64  1  0.66710965  0.01278430  0.79430903  1
  O  O65  1  0.32052654  0.32008546  0.79396467  1
  O  O66  1  0.01205792  0.01218627  0.87257809  1
  O  O67  1  0.32062533  0.66668359  0.87290213  1
  O  O68  1  0.66662192  0.32081706  0.87254866  1
  O  O69  1  0.98726941  0.32097587  0.96084231  1
  O  O70  1  0.33363792  0.01276222  0.96080817  1
  O  O71  1  0.67957895  0.66729905  0.96051438  1
