# generated using pymatgen
data_Ca3(AlN2)2
_symmetry_space_group_name_H-M   'P 1'
_cell_length_a   6.70681437
_cell_length_b   6.70681437
_cell_length_c   5.49639854
_cell_angle_alpha   88.31770330
_cell_angle_beta   88.31770330
_cell_angle_gamma   75.76571166
_symmetry_Int_Tables_number   1
_chemical_formula_structural   Ca3(AlN2)2
_chemical_formula_sum   'Ca6 Al4 N8'
_cell_volume   239.47911031
_cell_formula_units_Z   2
loop_
 _symmetry_equiv_pos_site_id
 _symmetry_equiv_pos_as_xyz
  1  'x, y, z'
loop_
 _atom_site_type_symbol
 _atom_site_label
 _atom_site_symmetry_multiplicity
 _atom_site_fract_x
 _atom_site_fract_y
 _atom_site_fract_z
 _atom_site_occupancy
  Ca  Ca0  1  0.74642056  0.02168804  0.54514495  1
  Ca  Ca1  1  0.25357944  0.97831196  0.45485505  1
  Ca  Ca2  1  0.39855158  0.60144842  0.75000000  1
  Ca  Ca3  1  0.60144842  0.39855158  0.25000000  1
  Ca  Ca4  1  0.02168804  0.74642056  0.04514495  1
  Ca  Ca5  1  0.97831196  0.25357944  0.95485505  1
  Al  Al6  1  0.41422068  0.17648586  0.91225092  1
  Al  Al7  1  0.58577932  0.82351414  0.08774908  1
  Al  Al8  1  0.82351414  0.58577932  0.58774908  1
  Al  Al9  1  0.17648586  0.41422068  0.41225092  1
  N  N10  1  0.69627782  0.05836330  0.01994632  1
  N  N11  1  0.26354645  0.40978035  0.08226734  1
  N  N12  1  0.94163670  0.30372218  0.48005368  1
  N  N13  1  0.40978035  0.26354645  0.58226734  1
  N  N14  1  0.05836330  0.69627782  0.51994632  1
  N  N15  1  0.59021965  0.73645355  0.41773266  1
  N  N16  1  0.30372218  0.94163670  0.98005368  1
  N  N17  1  0.73645355  0.59021965  0.91773266  1
