# generated using pymatgen
data_Mo(PO3)3
_symmetry_space_group_name_H-M   'P 1'
_cell_length_a   11.88724162
_cell_length_b   11.88724162
_cell_length_c   9.61499416
_cell_angle_alpha   69.95364027
_cell_angle_beta   69.95364027
_cell_angle_gamma   110.89807599
_symmetry_Int_Tables_number   1
_chemical_formula_structural   Mo(PO3)3
_chemical_formula_sum   'Mo6 P18 O54'
_cell_volume   1011.21165880
_cell_formula_units_Z   6
loop_
 _symmetry_equiv_pos_site_id
 _symmetry_equiv_pos_as_xyz
  1  'x, y, z'
loop_
 _atom_site_type_symbol
 _atom_site_label
 _atom_site_symmetry_multiplicity
 _atom_site_fract_x
 _atom_site_fract_y
 _atom_site_fract_z
 _atom_site_occupancy
  Mo  Mo0  1  0.02737044  0.51481101  0.46026990  1
  Mo  Mo1  1  0.51481101  0.02737044  0.96026990  1
  Mo  Mo2  1  0.83908112  0.66103597  0.99599575  1
  Mo  Mo3  1  0.66103597  0.83908112  0.49599575  1
  Mo  Mo4  1  0.33140505  0.17399525  0.49381670  1
  Mo  Mo5  1  0.17399525  0.33140505  0.99381670  1
  P  P6  1  0.68966026  0.31004645  0.25090228  1
  P  P7  1  0.31004645  0.68966026  0.75090228  1
  P  P8  1  0.01050733  0.96354039  0.26969595  1
  P  P9  1  0.96354039  0.01050733  0.76969595  1
  P  P10  1  0.42616117  0.36340251  0.66769217  1
  P  P11  1  0.36340251  0.42616117  0.16769217  1
  P  P12  1  0.63277000  0.57899846  0.82972583  1
  P  P13  1  0.57899846  0.63277000  0.32972583  1
  P  P14  1  0.10168078  0.70550011  0.64564086  1
  P  P15  1  0.70550011  0.10168078  0.14564086  1
  P  P16  1  0.67011107  0.38637520  0.70097638  1
  P  P17  1  0.38637520  0.67011107  0.20097638  1
  P  P18  1  0.31419855  0.92357579  0.80048406  1
  P  P19  1  0.92357579  0.31419855  0.30048406  1
  P  P20  1  0.04479737  0.77011440  0.14725609  1
  P  P21  1  0.77011440  0.04479737  0.64725609  1
  P  P22  1  0.25330606  0.98107095  0.30903601  1
  P  P23  1  0.98107095  0.25330606  0.80903601  1
  O  O24  1  0.45098542  0.49631664  0.51539507  1
  O  O25  1  0.49631664  0.45098542  0.01539507  1
  O  O26  1  0.19016500  0.65447090  0.70800078  1
  O  O27  1  0.65447090  0.19016500  0.20800078  1
  O  O28  1  0.58439780  0.40317966  0.60718093  1
  O  O29  1  0.40317966  0.58439780  0.10718093  1
  O  O30  1  0.69123128  0.49793785  0.75861428  1
  O  O31  1  0.49793785  0.69123128  0.25861428  1
  O  O32  1  0.28729305  0.77000194  0.85140503  1
  O  O33  1  0.77000194  0.28729305  0.35140503  1
  O  O34  1  0.17899034  0.88958429  0.95801979  1
  O  O35  1  0.88958429  0.17899034  0.45801979  1
  O  O36  1  0.99006389  0.86172167  0.19668335  1
  O  O37  1  0.86172167  0.99006389  0.69668335  1
  O  O38  1  0.09629136  0.93856705  0.35935709  1
  O  O39  1  0.93856705  0.09629136  0.85935709  1
  O  O40  1  0.22449148  0.84516191  0.46121592  1
  O  O41  1  0.84516191  0.22449148  0.96121592  1
  O  O42  1  0.24290743  0.58530702  0.36084348  1
  O  O43  1  0.58530702  0.24290743  0.86084348  1
  O  O44  1  0.08952192  0.71215959  0.26640650  1
  O  O45  1  0.71215959  0.08952192  0.76640650  1
  O  O46  1  0.99019690  0.32552236  0.64203502  1
  O  O47  1  0.32552236  0.99019690  0.14203502  1
  O  O48  1  0.36572008  0.35961789  0.83379020  1
  O  O49  1  0.35961789  0.36572008  0.33379020  1
  O  O50  1  0.23376042  0.34208013  0.17171622  1
  O  O51  1  0.34208013  0.23376042  0.67171622  1
  O  O52  1  0.27677886  0.55182673  0.87955240  1
  O  O53  1  0.55182673  0.27677886  0.37955240  1
  O  O54  1  0.98236100  0.31031913  0.13961016  1
  O  O55  1  0.31031913  0.98236100  0.63961016  1
  O  O56  1  0.09056326  0.11106248  0.12038413  1
  O  O57  1  0.11106248  0.09056326  0.62038413  1
  O  O58  1  0.10735238  0.32325850  0.81855276  1
  O  O59  1  0.32325850  0.10735238  0.31855276  1
  O  O60  1  0.66869058  0.73960813  0.35346785  1
  O  O61  1  0.73960813  0.66869058  0.85346785  1
  O  O62  1  0.86971756  0.90593788  0.41950160  1
  O  O63  1  0.90593788  0.86971756  0.91950160  1
  O  O64  1  0.58999108  0.65080074  0.71772853  1
  O  O65  1  0.65080074  0.58999108  0.21772853  1
  O  O66  1  0.44992944  0.78511055  0.58299252  1
  O  O67  1  0.78511055  0.44992944  0.08299252  1
  O  O68  1  0.74106510  0.02589073  0.26493313  1
  O  O69  1  0.02589073  0.74106510  0.76493313  1
  O  O70  1  0.66499800  0.93732347  0.63886204  1
  O  O71  1  0.93732347  0.66499800  0.13886204  1
  O  O72  1  0.43525239  0.81114884  0.06049239  1
  O  O73  1  0.81114884  0.43525239  0.56049239  1
  O  O74  1  0.59413694  0.01441106  0.12525722  1
  O  O75  1  0.01441106  0.59413694  0.62525722  1
  O  O76  1  0.44193715  0.01536404  0.79351263  1
  O  O77  1  0.01536404  0.44193715  0.29351263  1
