# generated using pymatgen
data_CdI2
_symmetry_space_group_name_H-M   'P 1'
_cell_length_a   4.28762948
_cell_length_b   4.28762948
_cell_length_c   93.44639304
_cell_angle_alpha   90.00000000
_cell_angle_beta   90.00000000
_cell_angle_gamma   120.00000117
_symmetry_Int_Tables_number   1
_chemical_formula_structural   CdI2
_chemical_formula_sum   'Cd13 I26'
_cell_volume   1487.74214147
_cell_formula_units_Z   13
loop_
 _symmetry_equiv_pos_site_id
 _symmetry_equiv_pos_as_xyz
  1  'x, y, z'
loop_
 _atom_site_type_symbol
 _atom_site_label
 _atom_site_symmetry_multiplicity
 _atom_site_fract_x
 _atom_site_fract_y
 _atom_site_fract_z
 _atom_site_occupancy
  Cd  Cd0  1  0.00000000  -0.00000000  0.71125728  1
  Cd  Cd1  1  -0.00000000  0.00000000  0.48037945  1
  Cd  Cd2  1  0.66666700  0.33333300  0.63456532  1
  Cd  Cd3  1  0.66666700  0.33333300  0.09644647  1
  Cd  Cd4  1  0.00000000  -0.00000000  0.55740696  1
  Cd  Cd5  1  -0.00000000  0.00000000  0.01914535  1
  Cd  Cd6  1  -0.00000000  -0.00000000  0.40371335  1
  Cd  Cd7  1  0.00000000  -0.00000000  0.32716808  1
  Cd  Cd8  1  0.00000000  -0.00000000  0.17347282  1
  Cd  Cd9  1  0.66666700  0.33333300  0.78827368  1
  Cd  Cd10  1  0.66666700  0.33333300  0.86558564  1
  Cd  Cd11  1  0.66666700  0.33333300  0.25008629  1
  Cd  Cd12  1  0.66666700  0.33333300  0.94253542  1
  I  I13  1  -0.00000000  0.00000000  0.88404815  1
  I  I14  1  0.33333300  0.66666700  0.61622024  1
  I  I15  1  0.33333300  0.66666700  0.53897278  1
  I  I16  1  0.66666700  0.33333300  0.19189478  1
  I  I17  1  0.33333300  0.66666700  0.23162528  1
  I  I18  1  -0.00000000  -0.00000000  0.96098097  1
  I  I19  1  0.66666700  0.33333300  0.34550280  1
  I  I20  1  0.33333300  0.66666700  0.84711563  1
  I  I21  1  0.00000000  -0.00000000  0.65291142  1
  I  I22  1  0.33333300  0.66666700  0.15504622  1
  I  I23  1  0.33333300  0.66666700  0.76984227  1
  I  I24  1  0.33333300  0.66666700  0.69278487  1
  I  I25  1  0.66666700  0.33333300  0.42206886  1
  I  I26  1  0.33333300  0.66666700  0.00071353  1
  I  I27  1  -0.00000000  0.00000000  0.26855970  1
  I  I28  1  0.33333300  0.66666700  0.92404155  1
  I  I29  1  0.66666700  0.33333300  0.57582354  1
  I  I30  1  0.66666700  0.33333300  0.03755775  1
  I  I31  1  0.66666700  0.33333300  0.72971689  1
  I  I32  1  0.33333300  0.66666700  0.07798014  1
  I  I33  1  -0.00000000  0.00000000  0.11491462  1
  I  I34  1  0.33333300  0.66666700  0.30882037  1
  I  I35  1  0.33333300  0.66666700  0.46191316  1
  I  I36  1  -0.00000000  0.00000000  0.80669016  1
  I  I37  1  0.33333300  0.66666700  0.38537270  1
  I  I38  1  0.66666700  0.33333300  0.49884349  1
