# generated using pymatgen
data_Ba2Zn7F18
_symmetry_space_group_name_H-M   'P 1'
_cell_length_a   7.02875422
_cell_length_b   7.30589421
_cell_length_c   7.50353236
_cell_angle_alpha   94.21674102
_cell_angle_beta   92.95237011
_cell_angle_gamma   116.29152015
_symmetry_Int_Tables_number   1
_chemical_formula_structural   Ba2Zn7F18
_chemical_formula_sum   'Ba2 Zn7 F18'
_cell_volume   342.99459370
_cell_formula_units_Z   1
loop_
 _symmetry_equiv_pos_site_id
 _symmetry_equiv_pos_as_xyz
  1  'x, y, z'
loop_
 _atom_site_type_symbol
 _atom_site_label
 _atom_site_symmetry_multiplicity
 _atom_site_fract_x
 _atom_site_fract_y
 _atom_site_fract_z
 _atom_site_occupancy
  Ba  Ba0  1  0.31486130  0.68811846  0.63155114  1
  Ba  Ba1  1  0.68513870  0.31188154  0.36844886  1
  Zn  Zn2  1  0.00000000  0.00000000  0.50000000  1
  Zn  Zn3  1  0.19172695  0.87133336  0.17942193  1
  Zn  Zn4  1  0.80827305  0.12866664  0.82057807  1
  Zn  Zn5  1  0.82071592  0.61990144  0.80649274  1
  Zn  Zn6  1  0.17928408  0.38009856  0.19350726  1
  Zn  Zn7  1  0.60903132  0.73112192  0.12288366  1
  Zn  Zn8  1  0.39096868  0.26887808  0.87711634  1
  F  F9  1  0.47961070  0.56054845  0.32324880  1
  F  F10  1  0.52038930  0.43945155  0.67675120  1
  F  F11  1  0.11077625  0.77168558  0.92513166  1
  F  F12  1  0.88922375  0.22831442  0.07486834  1
  F  F13  1  0.71636732  0.98977582  0.55633654  1
  F  F14  1  0.28363268  0.01022418  0.44366346  1
  F  F15  1  0.92123933  0.71823094  0.57131449  1
  F  F16  1  0.07876067  0.28176906  0.42868551  1
  F  F17  1  0.90695657  0.87225429  0.23737715  1
  F  F18  1  0.09304343  0.12774571  0.76262285  1
  F  F19  1  0.70156550  0.82392866  0.87829986  1
  F  F20  1  0.29843450  0.17607134  0.12170014  1
  F  F21  1  0.10194418  0.60521377  0.28497502  1
  F  F22  1  0.89805582  0.39478623  0.71502498  1
  F  F23  1  0.49885492  0.92734570  0.18482862  1
  F  F24  1  0.50114508  0.07265430  0.81517138  1
  F  F25  1  0.67993609  0.48704613  0.02703973  1
  F  F26  1  0.32006391  0.51295387  0.97296027  1
