# generated using pymatgen
data_NaI3O8
_symmetry_space_group_name_H-M   'P 1'
_cell_length_a   8.10161860
_cell_length_b   8.10161860
_cell_length_c   5.71008031
_cell_angle_alpha   90.00000000
_cell_angle_beta   90.00000000
_cell_angle_gamma   90.00000000
_symmetry_Int_Tables_number   1
_chemical_formula_structural   NaI3O8
_chemical_formula_sum   'Na2 I6 O16'
_cell_volume   374.78810994
_cell_formula_units_Z   2
loop_
 _symmetry_equiv_pos_site_id
 _symmetry_equiv_pos_as_xyz
  1  'x, y, z'
loop_
 _atom_site_type_symbol
 _atom_site_label
 _atom_site_symmetry_multiplicity
 _atom_site_fract_x
 _atom_site_fract_y
 _atom_site_fract_z
 _atom_site_occupancy
  Na  Na0  1  0.50000000  0.50000000  0.50000000  1
  Na  Na1  1  -0.00000000  0.00000000  0.50000000  1
  I  I2  1  0.50000000  0.00000000  0.60285066  1
  I  I3  1  0.73123154  0.74829387  0.10962148  1
  I  I4  1  -0.00000000  0.50000000  0.39714934  1
  I  I5  1  0.25170613  0.73123154  0.89037852  1
  I  I6  1  0.26876846  0.25170613  0.10962148  1
  I  I7  1  0.74829387  0.26876846  0.89037852  1
  O  O8  1  0.48660387  0.27429741  0.15717201  1
  O  O9  1  0.23166447  0.07173233  0.28630973  1
  O  O10  1  0.66784611  0.94686530  0.80179299  1
  O  O11  1  0.07173233  0.76833553  0.71369027  1
  O  O12  1  0.05313470  0.66784611  0.19820701  1
  O  O13  1  0.27429741  0.51339613  0.84282799  1
  O  O14  1  0.41038351  0.76605828  0.64044580  1
  O  O15  1  0.72570259  0.48660387  0.84282799  1
  O  O16  1  0.76605828  0.58961649  0.35955420  1
  O  O17  1  0.23394172  0.41038351  0.35955420  1
  O  O18  1  0.76833553  0.92826767  0.28630973  1
  O  O19  1  0.94686530  0.33215389  0.19820701  1
  O  O20  1  0.58961649  0.23394172  0.64044580  1
  O  O21  1  0.33215389  0.05313470  0.80179299  1
  O  O22  1  0.92826767  0.23166447  0.71369027  1
  O  O23  1  0.51339613  0.72570259  0.15717201  1
