# generated using pymatgen
data_Na26In4O19
_symmetry_space_group_name_H-M   'P 1'
_cell_length_a   12.48743002
_cell_length_b   12.48743002
_cell_length_c   12.48168558
_cell_angle_alpha   70.42894296
_cell_angle_beta   70.42894296
_cell_angle_gamma   108.97344728
_symmetry_Int_Tables_number   1
_chemical_formula_structural   Na26In4O19
_chemical_formula_sum   'Na52 In8 O38'
_cell_volume   1503.74155323
_cell_formula_units_Z   2
loop_
 _symmetry_equiv_pos_site_id
 _symmetry_equiv_pos_as_xyz
  1  'x, y, z'
loop_
 _atom_site_type_symbol
 _atom_site_label
 _atom_site_symmetry_multiplicity
 _atom_site_fract_x
 _atom_site_fract_y
 _atom_site_fract_z
 _atom_site_occupancy
  Na  Na0  1  0.81436600  0.44307600  0.14217100  1
  Na  Na1  1  0.55936100  0.31832800  0.35131000  1
  Na  Na2  1  0.85273800  0.40960300  0.82596600  1
  Na  Na3  1  0.67891600  0.35826900  0.58896300  1
  Na  Na4  1  0.26510300  0.44564000  0.40805100  1
  Na  Na5  1  0.13112800  0.38278500  0.24283300  1
  Na  Na6  1  0.58956600  0.14553200  0.54184100  1
  Na  Na7  1  0.64422000  0.45743100  0.91365400  1
  Na  Na8  1  0.36176000  0.31666100  0.55403600  1
  Na  Na9  1  0.10436300  0.17760000  0.48158900  1
  Na  Na10  1  0.91489200  0.34897000  0.46092200  1
  Na  Na11  1  0.05017400  0.39708600  0.63068400  1
  Na  Na12  1  0.44564000  0.26510300  0.90805100  1
  Na  Na13  1  0.18391400  0.31860200  0.77128300  1
  Na  Na14  1  0.82925700  0.24097400  0.31526900  1
  Na  Na15  1  0.61969800  0.24491300  0.12501800  1
  Na  Na16  1  0.38278500  0.13112800  0.74283300  1
  Na  Na17  1  0.31666100  0.36176000  0.05403600  1
  Na  Na18  1  0.15278800  0.05294800  0.69861700  1
  Na  Na19  1  0.17760000  0.10436300  0.98158900  1
  Na  Na20  1  0.39708600  0.05017400  0.13068400  1
  Na  Na21  1  0.34897000  0.91489200  0.96092200  1
  Na  Na22  1  0.24097400  0.82925700  0.81526900  1
  Na  Na23  1  0.31860200  0.18391400  0.27128300  1
  Na  Na24  1  0.95507100  0.09921500  0.83631900  1
  Na  Na25  1  0.94400900  0.85964200  0.68364500  1
  Na  Na26  1  0.05294800  0.15278800  0.19861700  1
  Na  Na27  1  0.58423100  0.94247000  0.74396800  1
  Na  Na28  1  0.76119600  0.08744900  0.06154900  1
  Na  Na29  1  0.75365500  0.88641400  0.86534800  1
  Na  Na30  1  0.09921500  0.95507100  0.33631900  1
  Na  Na31  1  0.85964200  0.94400900  0.18364500  1
  Na  Na32  1  0.81355600  0.64954400  0.94377100  1
  Na  Na33  1  0.62577300  0.03909900  0.31761900  1
  Na  Na34  1  0.54335300  0.68739400  0.87000200  1
  Na  Na35  1  0.55947600  0.87015600  0.08949000  1
  Na  Na36  1  0.94247000  0.58423100  0.24396800  1
  Na  Na37  1  0.08744900  0.76119600  0.56154900  1
  Na  Na38  1  0.68506900  0.74134800  0.16770300  1
  Na  Na39  1  0.88641400  0.75365500  0.36534800  1
  Na  Na40  1  0.64954400  0.81355600  0.44377100  1
  Na  Na41  1  0.35826900  0.67891600  0.08896300  1
  Na  Na42  1  0.40960300  0.85273800  0.32596600  1
  Na  Na43  1  0.03909900  0.62577300  0.81761900  1
  Na  Na44  1  0.68739400  0.54335300  0.37000200  1
  Na  Na45  1  0.87015600  0.55947600  0.58949000  1
  Na  Na46  1  0.74134800  0.68506900  0.66770300  1
  Na  Na47  1  0.14553200  0.58956600  0.04184100  1
  Na  Na48  1  0.45743100  0.64422000  0.41365400  1
  Na  Na49  1  0.44307600  0.81436600  0.64217100  1
  Na  Na50  1  0.24491300  0.61969800  0.62501800  1
  Na  Na51  1  0.31832800  0.55936100  0.85131000  1
  In  In52  1  0.50256400  0.50256200  0.17943000  1
  In  In53  1  0.50256200  0.50256400  0.67943000  1
  In  In54  1  0.81831600  0.99882400  0.49853900  1
  In  In55  1  0.99926300  0.31624900  0.99973500  1
  In  In56  1  0.68575600  0.17987000  0.81756100  1
  In  In57  1  0.31624900  0.99926300  0.49973500  1
  In  In58  1  0.99882400  0.81831600  0.99853900  1
  In  In59  1  0.17987000  0.68575600  0.31756100  1
  O  O60  1  0.63368000  0.43756500  0.11520100  1
  O  O61  1  0.74893700  0.37331100  0.37659800  1
  O  O62  1  0.50333400  0.50258100  0.34966500  1
  O  O63  1  0.30854200  0.37491600  0.24534800  1
  O  O64  1  0.50258100  0.50333400  0.84966500  1
  O  O65  1  0.39092800  0.13527000  0.55480800  1
  O  O66  1  0.37491600  0.30854200  0.74534800  1
  O  O67  1  0.61228500  0.24725200  0.94529000  1
  O  O68  1  0.55393000  0.11446800  0.75391600  1
  O  O69  1  0.14260900  0.25586300  0.62367300  1
  O  O70  1  0.95626900  0.19445700  0.40828700  1
  O  O71  1  0.05768300  0.44333800  0.80592700  1
  O  O72  1  0.84660200  0.35802400  0.65208900  1
  O  O73  1  0.13527000  0.39092800  0.05480800  1
  O  O74  1  0.25586300  0.14260900  0.12367300  1
  O  O75  1  0.44333800  0.05768300  0.30592700  1
  O  O76  1  0.19445700  0.95626900  0.90828700  1
  O  O77  1  0.64626900  0.99892000  0.50204800  1
  O  O78  1  0.00088100  0.14739700  0.99707700  1
  O  O79  1  0.93485600  0.88414900  0.86602400  1
  O  O80  1  0.74954200  0.86401900  0.69243900  1
  O  O81  1  0.80435400  0.25044900  0.13376000  1
  O  O82  1  0.73899200  0.04801300  0.90224500  1
  O  O83  1  0.99892000  0.64626900  0.00204800  1
  O  O84  1  0.14739700  0.00088100  0.49707700  1
  O  O85  1  0.88414900  0.93485600  0.36602400  1
  O  O86  1  0.25044900  0.80435400  0.63376000  1
  O  O87  1  0.86401900  0.74954200  0.19243900  1
  O  O88  1  0.04801300  0.73899200  0.40224500  1
  O  O89  1  0.37331100  0.74893700  0.87659800  1
  O  O90  1  0.62509200  0.87261100  0.25411900  1
  O  O91  1  0.56831100  0.69711400  0.04819900  1
  O  O92  1  0.35802400  0.84660200  0.15208900  1
  O  O93  1  0.87261100  0.62509200  0.75411900  1
  O  O94  1  0.69711400  0.56831100  0.54819900  1
  O  O95  1  0.43756500  0.63368000  0.61520100  1
  O  O96  1  0.24725200  0.61228500  0.44529000  1
  O  O97  1  0.11446800  0.55393000  0.25391600  1
