# generated using pymatgen
data_Hg2MoO4
_symmetry_space_group_name_H-M   'P 1'
_cell_length_a   7.33587816
_cell_length_b   7.33587816
_cell_length_c   4.92816154
_cell_angle_alpha   75.32486563
_cell_angle_beta   75.32486563
_cell_angle_gamma   106.37024853
_symmetry_Int_Tables_number   1
_chemical_formula_structural   Hg2MoO4
_chemical_formula_sum   'Hg4 Mo2 O8'
_cell_volume   230.59911646
_cell_formula_units_Z   2
loop_
 _symmetry_equiv_pos_site_id
 _symmetry_equiv_pos_as_xyz
  1  'x, y, z'
loop_
 _atom_site_type_symbol
 _atom_site_label
 _atom_site_symmetry_multiplicity
 _atom_site_fract_x
 _atom_site_fract_y
 _atom_site_fract_z
 _atom_site_occupancy
  Hg  Hg0  1  0.53326834  0.75112780  0.51941088  1
  Hg  Hg1  1  0.24887220  0.46673166  0.98058912  1
  Hg  Hg2  1  0.46673166  0.24887220  0.48058912  1
  Hg  Hg3  1  0.75112780  0.53326834  0.01941088  1
  Mo  Mo4  1  0.10068584  0.89931416  0.25000000  1
  Mo  Mo5  1  0.89931416  0.10068584  0.75000000  1
  O  O6  1  0.66700393  0.05233130  0.69765408  1
  O  O7  1  0.33299607  0.94766870  0.30234592  1
  O  O8  1  0.18285965  0.08617362  0.85683758  1
  O  O9  1  0.08617362  0.18285965  0.35683758  1
  O  O10  1  0.05233130  0.66700393  0.19765408  1
  O  O11  1  0.91382638  0.81714035  0.64316242  1
  O  O12  1  0.81714035  0.91382638  0.14316242  1
  O  O13  1  0.94766870  0.33299607  0.80234592  1
