# generated using pymatgen
data_NbCl5
_symmetry_space_group_name_H-M   'P 1'
_cell_length_a   8.05666079
_cell_length_b   8.19612819
_cell_length_c   10.37009880
_cell_angle_alpha   90.00000000
_cell_angle_beta   90.00000000
_cell_angle_gamma   89.97512895
_symmetry_Int_Tables_number   1
_chemical_formula_structural   NbCl5
_chemical_formula_sum   'Nb4 Cl20'
_cell_volume   684.77307293
_cell_formula_units_Z   4
loop_
 _symmetry_equiv_pos_site_id
 _symmetry_equiv_pos_as_xyz
  1  'x, y, z'
loop_
 _atom_site_type_symbol
 _atom_site_label
 _atom_site_symmetry_multiplicity
 _atom_site_fract_x
 _atom_site_fract_y
 _atom_site_fract_z
 _atom_site_occupancy
  Nb  Nb0  1  0.55439845  0.33669983  0.13880555  1
  Nb  Nb1  1  0.94560155  0.16330017  0.63880555  1
  Nb  Nb2  1  0.05439845  0.83669983  0.36119445  1
  Nb  Nb3  1  0.44560155  0.66330017  0.86119445  1
  Cl  Cl4  1  0.13872232  0.57269022  0.37971368  1
  Cl  Cl5  1  0.45882271  0.63596326  0.10935645  1
  Cl  Cl6  1  0.77394718  0.77158696  0.37736065  1
  Cl  Cl7  1  0.22605282  0.22841304  0.62263935  1
  Cl  Cl8  1  0.63872232  0.07269022  0.12028632  1
  Cl  Cl9  1  0.36127768  0.92730978  0.87971368  1
  Cl  Cl10  1  0.67814515  0.05976232  0.61818648  1
  Cl  Cl11  1  0.82185485  0.44023768  0.11818648  1
  Cl  Cl12  1  0.45404320  0.63066616  0.64324812  1
  Cl  Cl13  1  0.54117729  0.36403674  0.89064355  1
  Cl  Cl14  1  0.17814515  0.55976232  0.88181352  1
  Cl  Cl15  1  0.72605282  0.72841304  0.87736065  1
  Cl  Cl16  1  0.95404320  0.13066616  0.85675188  1
  Cl  Cl17  1  0.27394718  0.27158696  0.12263935  1
  Cl  Cl18  1  0.04117729  0.86403674  0.60935645  1
  Cl  Cl19  1  0.95882271  0.13596326  0.39064355  1
  Cl  Cl20  1  0.54595680  0.36933384  0.35675188  1
  Cl  Cl21  1  0.32185485  0.94023768  0.38181352  1
  Cl  Cl22  1  0.86127768  0.42730978  0.62028632  1
  Cl  Cl23  1  0.04595680  0.86933384  0.14324812  1
