# generated using pymatgen
data_Mn(RhO2)2
_symmetry_space_group_name_H-M   'P 1'
_cell_length_a   6.09346206
_cell_length_b   6.09349983
_cell_length_c   6.09354285
_cell_angle_alpha   60.00037666
_cell_angle_beta   60.00020430
_cell_angle_gamma   60.00077055
_symmetry_Int_Tables_number   1
_chemical_formula_structural   Mn(RhO2)2
_chemical_formula_sum   'Mn2 Rh4 O8'
_cell_volume   159.98903617
_cell_formula_units_Z   2
loop_
 _symmetry_equiv_pos_site_id
 _symmetry_equiv_pos_as_xyz
  1  'x, y, z'
loop_
 _atom_site_type_symbol
 _atom_site_label
 _atom_site_symmetry_multiplicity
 _atom_site_fract_x
 _atom_site_fract_y
 _atom_site_fract_z
 _atom_site_occupancy
  Mn  Mn0  1  0.12500483  0.12500060  0.12499771  1
  Mn  Mn1  1  0.87499517  0.87499940  0.87500229  1
  Rh  Rh2  1  0.50000000  0.50000000  -0.00000000  1
  Rh  Rh3  1  0.50000000  0.00000000  0.50000000  1
  Rh  Rh4  1  0.50000000  0.50000000  0.50000000  1
  Rh  Rh5  1  -0.00000000  0.50000000  0.50000000  1
  O  O6  1  0.73816429  0.73816457  0.73815743  1
  O  O7  1  0.73815807  0.28551308  0.73816480  1
  O  O8  1  0.73816438  0.73816480  0.28551380  1
  O  O9  1  0.26183562  0.26183520  0.71448620  1
  O  O10  1  0.26183571  0.26183543  0.26184257  1
  O  O11  1  0.28551402  0.73815725  0.73816450  1
  O  O12  1  0.26184193  0.71448692  0.26183520  1
  O  O13  1  0.71448598  0.26184275  0.26183550  1
