# generated using pymatgen
data_As4S3
_symmetry_space_group_name_H-M   'P 1'
_cell_length_a   6.79579656
_cell_length_b   10.16654238
_cell_length_c   11.57031641
_cell_angle_alpha   90.00000000
_cell_angle_beta   90.00000000
_cell_angle_gamma   90.00000000
_symmetry_Int_Tables_number   1
_chemical_formula_structural   As4S3
_chemical_formula_sum   'As16 S12'
_cell_volume   799.39031138
_cell_formula_units_Z   4
loop_
 _symmetry_equiv_pos_site_id
 _symmetry_equiv_pos_as_xyz
  1  'x, y, z'
loop_
 _atom_site_type_symbol
 _atom_site_label
 _atom_site_symmetry_multiplicity
 _atom_site_fract_x
 _atom_site_fract_y
 _atom_site_fract_z
 _atom_site_occupancy
  As  As0  1  0.21695559  0.62681439  0.92694449  1
  As  As1  1  0.78304441  0.12681439  0.07305551  1
  As  As2  1  0.71695559  0.12681439  0.57305551  1
  As  As3  1  0.21695559  0.87318561  0.92694449  1
  As  As4  1  0.89921646  0.25000000  0.42145929  1
  As  As5  1  0.78304441  0.37318661  0.07305551  1
  As  As6  1  0.39921646  0.75000000  0.07854071  1
  As  As7  1  0.16735335  0.25000000  0.68623711  1
  As  As8  1  0.10078354  0.75000000  0.57854071  1
  As  As9  1  0.71695559  0.37318661  0.57305551  1
  As  As10  1  0.83264665  0.75000000  0.31376289  1
  As  As11  1  0.33264665  0.25000000  0.18623711  1
  As  As12  1  0.28304441  0.62681439  0.42694449  1
  As  As13  1  0.66735335  0.75000000  0.81376289  1
  As  As14  1  0.28304441  0.87318561  0.42694449  1
  As  As15  1  0.60078354  0.25000000  0.92145929  1
  S  S16  1  0.79784831  0.75000000  0.50674043  1
  S  S17  1  0.45183812  0.58348762  0.79952081  1
  S  S18  1  0.54816188  0.41651238  0.20047919  1
  S  S19  1  0.70215169  0.75000000  0.00674043  1
  S  S20  1  0.45183812  0.91651238  0.79952081  1
  S  S21  1  0.20215169  0.25000000  0.49325957  1
  S  S22  1  0.95183812  0.41651238  0.70047919  1
  S  S23  1  0.29784831  0.25000000  0.99325957  1
  S  S24  1  0.54816188  0.08348762  0.20047919  1
  S  S25  1  0.95183812  0.08348762  0.70047919  1
  S  S26  1  0.04816188  0.91651238  0.29952081  1
  S  S27  1  0.04816188  0.58348762  0.29952081  1
