# generated using pymatgen
data_CsHoZnSe3
_symmetry_space_group_name_H-M   'P 1'
_cell_length_a   8.28448384
_cell_length_b   8.28448384
_cell_length_c   10.92566093
_cell_angle_alpha   90.00000000
_cell_angle_beta   90.00000000
_cell_angle_gamma   151.10575998
_symmetry_Int_Tables_number   1
_chemical_formula_structural   CsHoZnSe3
_chemical_formula_sum   'Cs2 Ho2 Zn2 Se6'
_cell_volume   362.32682958
_cell_formula_units_Z   2
loop_
 _symmetry_equiv_pos_site_id
 _symmetry_equiv_pos_as_xyz
  1  'x, y, z'
loop_
 _atom_site_type_symbol
 _atom_site_label
 _atom_site_symmetry_multiplicity
 _atom_site_fract_x
 _atom_site_fract_y
 _atom_site_fract_z
 _atom_site_occupancy
  Cs  Cs0  1  0.25761970  0.74238030  0.75000000  1
  Cs  Cs1  1  0.74238030  0.25761970  0.25000000  1
  Ho  Ho2  1  0.00000000  -0.00000000  0.00000000  1
  Ho  Ho3  1  0.00000000  -0.00000000  0.50000000  1
  Zn  Zn4  1  0.53909132  0.46090868  0.75000000  1
  Zn  Zn5  1  0.46090868  0.53909132  0.25000000  1
  Se  Se6  1  0.61632841  0.38367159  0.94152689  1
  Se  Se7  1  0.38367159  0.61632841  0.05847311  1
  Se  Se8  1  0.38367159  0.61632841  0.44152689  1
  Se  Se9  1  0.61632841  0.38367159  0.55847311  1
  Se  Se10  1  0.94606387  0.05393613  0.75000000  1
  Se  Se11  1  0.05393613  0.94606387  0.25000000  1
