# generated using pymatgen
data_Dy(IO3)3
_symmetry_space_group_name_H-M   'P 1'
_cell_length_a   5.97848885
_cell_length_b   8.68759468
_cell_length_c   16.42112576
_cell_angle_alpha   65.38540012
_cell_angle_beta   90.00000000
_cell_angle_gamma   90.00000000
_symmetry_Int_Tables_number   1
_chemical_formula_structural   Dy(IO3)3
_chemical_formula_sum   'Dy4 I12 O36'
_cell_volume   775.38945880
_cell_formula_units_Z   4
loop_
 _symmetry_equiv_pos_site_id
 _symmetry_equiv_pos_as_xyz
  1  'x, y, z'
loop_
 _atom_site_type_symbol
 _atom_site_label
 _atom_site_symmetry_multiplicity
 _atom_site_fract_x
 _atom_site_fract_y
 _atom_site_fract_z
 _atom_site_occupancy
  Dy  Dy0  1  0.28588514  0.14583834  0.39703193  1
  Dy  Dy1  1  0.21411486  0.14583834  0.89703193  1
  Dy  Dy2  1  0.78588514  0.85416166  0.10296807  1
  Dy  Dy3  1  0.71411486  0.85416166  0.60296807  1
  I  I4  1  0.31404969  0.07497978  0.14468807  1
  I  I5  1  0.59848099  0.41874518  0.19966917  1
  I  I6  1  0.09848099  0.58125482  0.30033083  1
  I  I7  1  0.18595031  0.07497978  0.64468807  1
  I  I8  1  0.64950182  0.35696632  0.47899566  1
  I  I9  1  0.81404969  0.92502022  0.35531193  1
  I  I10  1  0.85049818  0.35696632  0.97899566  1
  I  I11  1  0.40151901  0.58125482  0.80033083  1
  I  I12  1  0.35049818  0.64303368  0.52100434  1
  I  I13  1  0.14950182  0.64303368  0.02100434  1
  I  I14  1  0.90151901  0.41874518  0.69966917  1
  I  I15  1  0.68595031  0.92502022  0.85531193  1
  O  O16  1  0.02659543  0.39397672  0.88181869  1
  O  O17  1  0.87901819  0.12813981  0.01259784  1
  O  O18  1  0.55904730  0.94202172  0.18959581  1
  O  O19  1  0.17764652  0.34323126  0.74402895  1
  O  O20  1  0.92917404  0.64500316  0.94206555  1
  O  O21  1  0.48997648  0.36276474  0.86421814  1
  O  O22  1  0.57082596  0.64500316  0.44206555  1
  O  O23  1  0.39193411  0.90542435  0.67000560  1
  O  O24  1  0.67764652  0.65676874  0.75597105  1
  O  O25  1  0.32235348  0.34323126  0.24402895  1
  O  O26  1  0.07082596  0.35499684  0.05793445  1
  O  O27  1  0.58861600  0.34164528  0.11233911  1
  O  O28  1  0.87895467  0.88361979  0.46981110  1
  O  O29  1  0.01002352  0.36276474  0.36421814  1
  O  O30  1  0.62098181  0.12813981  0.51259784  1
  O  O31  1  0.62104533  0.88361979  0.96981110  1
  O  O32  1  0.51002352  0.63723526  0.13578186  1
  O  O33  1  0.12104533  0.11638021  0.53018890  1
  O  O34  1  0.05904730  0.05797828  0.31040419  1
  O  O35  1  0.10806589  0.90542435  0.17000560  1
  O  O36  1  0.12098181  0.87186019  0.98740216  1
  O  O37  1  0.08861600  0.65835472  0.38766089  1
  O  O38  1  0.37901819  0.87186019  0.48740216  1
  O  O39  1  0.41138400  0.65835472  0.88766089  1
  O  O40  1  0.42917404  0.35499684  0.55793445  1
  O  O41  1  0.52659543  0.60602328  0.61818131  1
  O  O42  1  0.89193411  0.09457565  0.82999440  1
  O  O43  1  0.91138400  0.34164528  0.61233911  1
  O  O44  1  0.60806589  0.09457565  0.32999440  1
  O  O45  1  0.82235348  0.65676874  0.25597105  1
  O  O46  1  0.44095270  0.05797828  0.81040419  1
  O  O47  1  0.97340457  0.60602328  0.11818131  1
  O  O48  1  0.37895467  0.11638021  0.03018890  1
  O  O49  1  0.94095270  0.94202172  0.68959581  1
  O  O50  1  0.98997648  0.63723526  0.63578186  1
  O  O51  1  0.47340457  0.39397672  0.38181869  1
