# generated using pymatgen
data_K2Ca2(CO3)3
_symmetry_space_group_name_H-M   'P 1'
_cell_length_a   8.04204488
_cell_length_b   8.04204488
_cell_length_c   8.04204542
_cell_angle_alpha   107.98142427
_cell_angle_beta   107.98142427
_cell_angle_gamma   107.98143169
_symmetry_Int_Tables_number   1
_chemical_formula_structural   K2Ca2(CO3)3
_chemical_formula_sum   'K4 Ca4 C6 O18'
_cell_volume   421.02231986
_cell_formula_units_Z   2
loop_
 _symmetry_equiv_pos_site_id
 _symmetry_equiv_pos_as_xyz
  1  'x, y, z'
loop_
 _atom_site_type_symbol
 _atom_site_label
 _atom_site_symmetry_multiplicity
 _atom_site_fract_x
 _atom_site_fract_y
 _atom_site_fract_z
 _atom_site_occupancy
  K  K0  1  0.12876951  0.12876951  0.12876951  1
  K  K1  1  0.90232728  0.44411931  0.29951664  1
  K  K2  1  0.29951664  0.90232728  0.44411931  1
  K  K3  1  0.44411931  0.29951664  0.90232728  1
  Ca  Ca4  1  0.97534030  0.49348286  0.82898664  1
  Ca  Ca5  1  0.49348286  0.82898664  0.97534030  1
  Ca  Ca6  1  0.82898664  0.97534030  0.49348286  1
  Ca  Ca7  1  0.55304384  0.55304384  0.55304384  1
  C  C8  1  0.58253656  0.19689493  0.38564044  1
  C  C9  1  0.06676360  0.82092641  0.73404448  1
  C  C10  1  0.73404448  0.06676360  0.82092641  1
  C  C11  1  0.82092641  0.73404448  0.06676360  1
  C  C12  1  0.19689493  0.38564044  0.58253656  1
  C  C13  1  0.38564044  0.58253656  0.19689493  1
  O  O14  1  0.63928229  0.89717897  0.66973114  1
  O  O15  1  0.89893590  0.18794013  0.84548591  1
  O  O16  1  0.66451952  0.11080770  0.94373779  1
  O  O17  1  0.52553918  0.28092961  0.28280276  1
  O  O18  1  0.64868471  0.28229481  0.57340599  1
  O  O19  1  0.57105195  0.02443715  0.30297568  1
  O  O20  1  0.28280276  0.52553918  0.28092961  1
  O  O21  1  0.11080770  0.94373779  0.66451952  1
  O  O22  1  0.30297568  0.57105195  0.02443715  1
  O  O23  1  0.57340599  0.64868471  0.28229481  1
  O  O24  1  0.89717897  0.66973114  0.63928229  1
  O  O25  1  0.28092961  0.28280276  0.52553918  1
  O  O26  1  0.84548591  0.89893590  0.18794013  1
  O  O27  1  0.66973114  0.63928229  0.89717897  1
  O  O28  1  0.94373779  0.66451952  0.11080770  1
  O  O29  1  0.02443715  0.30297568  0.57105195  1
  O  O30  1  0.28229481  0.57340599  0.64868471  1
  O  O31  1  0.18794013  0.84548591  0.89893590  1
