# generated using pymatgen
data_InGaS3
_symmetry_space_group_name_H-M   'P 1'
_cell_length_a   6.77340857
_cell_length_b   6.77236776
_cell_length_c   18.08691207
_cell_angle_alpha   89.99981152
_cell_angle_beta   90.00044285
_cell_angle_gamma   119.98715677
_symmetry_Int_Tables_number   1
_chemical_formula_structural   InGaS3
_chemical_formula_sum   'In6 Ga6 S18'
_cell_volume   718.61959717
_cell_formula_units_Z   6
loop_
 _symmetry_equiv_pos_site_id
 _symmetry_equiv_pos_as_xyz
  1  'x, y, z'
loop_
 _atom_site_type_symbol
 _atom_site_label
 _atom_site_symmetry_multiplicity
 _atom_site_fract_x
 _atom_site_fract_y
 _atom_site_fract_z
 _atom_site_occupancy
  In  In0  1  0.32855828  0.32760340  0.99152873  1
  In  In1  1  0.00086259  0.32863088  0.15825267  1
  In  In2  1  0.32796437  -0.00065701  0.82484597  1
  In  In3  1  0.67203910  0.00066376  0.32484732  1
  In  In4  1  -0.00086404  0.67136535  0.65825142  1
  In  In5  1  0.67143694  0.67239647  0.49152850  1
  Ga  Ga6  1  0.66609062  0.67971553  0.13007203  1
  Ga  Ga7  1  0.98653992  0.66599995  0.29702298  1
  Ga  Ga8  1  0.67972519  0.01378563  0.96370280  1
  Ga  Ga9  1  0.32027179  0.98621457  0.46370106  1
  Ga  Ga10  1  0.01346502  0.33399813  0.79702482  1
  Ga  Ga11  1  0.33390792  0.32028184  0.63007155  1
  S  S12  1  0.36387331  0.32195116  0.13993376  1
  S  S13  1  0.04185150  0.36345771  0.30668367  1
  S  S14  1  0.32178366  0.95792154  0.97331581  1
  S  S15  1  0.67821786  0.04208524  0.47331628  1
  S  S16  1  0.95815099  0.63654334  0.80668445  1
  S  S17  1  0.63612248  0.67804798  0.63993398  1
  S  S18  1  0.96676005  0.33887772  0.01083611  1
  S  S19  1  0.62805386  0.96666628  0.17743724  1
  S  S20  1  0.33867577  0.37206320  0.84416876  1
  S  S21  1  0.66132493  0.62793862  0.34417044  1
  S  S22  1  0.37194844  0.03333216  0.67743645  1
  S  S23  1  0.03323897  0.66112482  0.51083594  1
  S  S24  1  0.00049833  0.70409139  0.16945457  1
  S  S25  1  0.29639218  0.00047095  0.33612896  1
  S  S26  1  0.70435702  0.70355985  0.00261245  1
  S  S27  1  0.29564720  0.29644228  0.50261292  1
  S  S28  1  0.70360376  -0.00047859  0.83613150  1
  S  S29  1  -0.00050102  0.29590588  0.66945384  1
