# generated using pymatgen
data_Na4TiSe4
_symmetry_space_group_name_H-M   'P 1'
_cell_length_a   14.60421782
_cell_length_b   14.60421782
_cell_length_c   24.26408291
_cell_angle_alpha   49.75940177
_cell_angle_beta   49.75940177
_cell_angle_gamma   29.37949095
_symmetry_Int_Tables_number   1
_chemical_formula_structural   Na4TiSe4
_chemical_formula_sum   'Na32 Ti8 Se32'
_cell_volume   1889.72242085
_cell_formula_units_Z   8
loop_
 _symmetry_equiv_pos_site_id
 _symmetry_equiv_pos_as_xyz
  1  'x, y, z'
loop_
 _atom_site_type_symbol
 _atom_site_label
 _atom_site_symmetry_multiplicity
 _atom_site_fract_x
 _atom_site_fract_y
 _atom_site_fract_z
 _atom_site_occupancy
  Na  Na0  1  0.47091300  0.98898600  0.68451800  1
  Na  Na1  1  0.01101400  0.52908700  0.81548200  1
  Na  Na2  1  0.52908700  0.01101400  0.31548200  1
  Na  Na3  1  0.98898600  0.47091300  0.18451800  1
  Na  Na4  1  0.49583900  0.04079600  0.82633400  1
  Na  Na5  1  0.95920400  0.50416100  0.67366600  1
  Na  Na6  1  0.50416100  0.95920400  0.17366600  1
  Na  Na7  1  0.04079600  0.49583900  0.32633400  1
  Na  Na8  1  0.51640400  0.55503800  0.56332700  1
  Na  Na9  1  0.44496200  0.48359600  0.93667300  1
  Na  Na10  1  0.48359600  0.44496200  0.43667300  1
  Na  Na11  1  0.55503800  0.51640400  0.06332700  1
  Na  Na12  1  0.20359300  0.93858200  0.86402400  1
  Na  Na13  1  0.06141800  0.79640700  0.63597600  1
  Na  Na14  1  0.79640700  0.06141800  0.13597600  1
  Na  Na15  1  0.93858200  0.20359300  0.36402400  1
  Na  Na16  1  0.08659500  0.11307600  0.47988800  1
  Na  Na17  1  0.88692400  0.91340500  0.02011200  1
  Na  Na18  1  0.91340500  0.88692400  0.52011200  1
  Na  Na19  1  0.11307600  0.08659500  0.97988800  1
  Na  Na20  1  0.25324000  0.83838600  0.27678400  1
  Na  Na21  1  0.16161400  0.74676000  0.22321600  1
  Na  Na22  1  0.74676000  0.16161400  0.72321600  1
  Na  Na23  1  0.83838600  0.25324000  0.77678400  1
  Na  Na24  1  0.40510500  0.74958700  0.71102200  1
  Na  Na25  1  0.25041300  0.59489500  0.78897800  1
  Na  Na26  1  0.59489500  0.25041300  0.28897800  1
  Na  Na27  1  0.74958700  0.40510500  0.21102200  1
  Na  Na28  1  0.69438400  0.72203900  0.49287600  1
  Na  Na29  1  0.27796100  0.30561600  0.00712400  1
  Na  Na30  1  0.30561600  0.27796100  0.50712400  1
  Na  Na31  1  0.72203900  0.69438400  0.99287600  1
  Ti  Ti32  1  0.07174900  0.17791200  0.59680200  1
  Ti  Ti33  1  0.82208800  0.92825100  0.90319800  1
  Ti  Ti34  1  0.92825100  0.82208800  0.40319800  1
  Ti  Ti35  1  0.17791200  0.07174900  0.09680200  1
  Ti  Ti36  1  0.45338400  0.78295300  0.37193200  1
  Ti  Ti37  1  0.21704700  0.54661600  0.12806800  1
  Ti  Ti38  1  0.54661600  0.21704700  0.62806800  1
  Ti  Ti39  1  0.78295300  0.45338400  0.87193200  1
  Se  Se40  1  0.14014100  0.17662500  0.16295700  1
  Se  Se41  1  0.82337500  0.85985900  0.33704300  1
  Se  Se42  1  0.85985900  0.82337500  0.83704300  1
  Se  Se43  1  0.17662500  0.14014100  0.66295700  1
  Se  Se44  1  0.44444900  0.72599400  0.13021200  1
  Se  Se45  1  0.27400600  0.55555100  0.36978800  1
  Se  Se46  1  0.55555100  0.27400600  0.86978800  1
  Se  Se47  1  0.72599400  0.44444900  0.63021200  1
  Se  Se48  1  0.20159600  0.22181300  0.46721300  1
  Se  Se49  1  0.77818700  0.79840400  0.03278700  1
  Se  Se50  1  0.79840400  0.77818700  0.53278700  1
  Se  Se51  1  0.22181300  0.20159600  0.96721300  1
  Se  Se52  1  0.16719100  0.90361600  0.63746700  1
  Se  Se53  1  0.09638400  0.83280900  0.86253300  1
  Se  Se54  1  0.83280900  0.09638400  0.36253300  1
  Se  Se55  1  0.90361600  0.16719100  0.13746700  1
  Se  Se56  1  0.24836200  0.77879400  0.47558500  1
  Se  Se57  1  0.22120600  0.75163800  0.02441500  1
  Se  Se58  1  0.75163800  0.22120600  0.52441500  1
  Se  Se59  1  0.77879400  0.24836200  0.97558500  1
  Se  Se60  1  0.11782400  0.24704800  0.81280500  1
  Se  Se61  1  0.75295200  0.88217600  0.68719500  1
  Se  Se62  1  0.88217600  0.75295200  0.18719500  1
  Se  Se63  1  0.24704800  0.11782400  0.31280500  1
  Se  Se64  1  0.61201400  0.61559500  0.78853800  1
  Se  Se65  1  0.38440500  0.38798600  0.71146200  1
  Se  Se66  1  0.38798600  0.38440500  0.21146200  1
  Se  Se67  1  0.61559500  0.61201400  0.28853800  1
  Se  Se68  1  0.64423000  0.67467400  0.91284100  1
  Se  Se69  1  0.32532600  0.35577000  0.58715900  1
  Se  Se70  1  0.35577000  0.32532600  0.08715900  1
  Se  Se71  1  0.67467400  0.64423000  0.41284100  1
