# generated using pymatgen
data_Li5ReO6
_symmetry_space_group_name_H-M   'P 1'
_cell_length_a   5.01349310
_cell_length_b   5.01333458
_cell_length_c   14.06395081
_cell_angle_alpha   90.00116512
_cell_angle_beta   89.99998900
_cell_angle_gamma   119.99800207
_symmetry_Int_Tables_number   1
_chemical_formula_structural   Li5ReO6
_chemical_formula_sum   'Li15 Re3 O18'
_cell_volume   306.13559213
_cell_formula_units_Z   3
loop_
 _symmetry_equiv_pos_site_id
 _symmetry_equiv_pos_as_xyz
  1  'x, y, z'
loop_
 _atom_site_type_symbol
 _atom_site_label
 _atom_site_symmetry_multiplicity
 _atom_site_fract_x
 _atom_site_fract_y
 _atom_site_fract_z
 _atom_site_occupancy
  Li  Li0  1  0.77776071  0.22224384  0.33336744  1
  Li  Li1  1  0.12329859  0.87667108  0.83335448  1
  Li  Li2  1  0.44452056  0.88890955  0.16662411  1
  Li  Li3  1  0.11114486  0.55557897  0.49999800  1
  Li  Li4  1  0.12328092  0.24660653  0.16665262  1
  Li  Li5  1  0.77777817  0.55552883  0.66662776  1
  Li  Li6  1  0.76688720  0.23303091  0.83337274  1
  Li  Li7  1  0.11129832  0.55564493  0.00000498  1
  Li  Li8  1  0.44452233  0.55563525  0.83337172  1
  Li  Li9  1  0.44435707  0.88869511  0.66667143  1
  Li  Li10  1  0.76687360  0.53383611  0.16664191  1
  Li  Li11  1  0.44444510  0.22222026  0.00000363  1
  Li  Li12  1  0.44434523  0.55565585  0.33332351  1
  Li  Li13  1  0.75345878  0.87673436  0.49999342  1
  Li  Li14  1  0.46601301  0.23300935  0.49998882  1
  Re  Re15  1  0.11020138  0.88979980  0.33328739  1
  Re  Re16  1  0.11019900  0.22041070  0.66670322  1
  Re  Re17  1  0.77962405  0.88980510  0.00000905  1
  O  O18  1  0.41947347  0.53124311  0.58869434  1
  O  O19  1  0.42006614  0.19579337  0.25492600  1
  O  O20  1  0.77573315  0.19583986  0.07834582  1
  O  O21  1  0.80416623  0.57990229  0.41162627  1
  O  O22  1  0.46872523  0.88822862  0.92200433  1
  O  O23  1  0.77573951  0.57989499  0.92167758  1
  O  O24  1  0.42006310  0.22427074  0.74506447  1
  O  O25  1  0.80345440  0.91629267  0.74361361  1
  O  O26  1  0.11176535  0.58059623  0.25526824  1
  O  O27  1  0.08376185  0.19659964  0.92312336  1
  O  O28  1  0.11176662  0.53115685  0.74472196  1
  O  O29  1  0.08376724  0.88715373  0.07690299  1
  O  O30  1  0.80417897  0.22427234  0.58836060  1
  O  O31  1  0.11284173  0.19657938  0.41016636  1
  O  O32  1  0.46872137  0.58049061  0.07801839  1
  O  O33  1  0.41948033  0.88822780  0.41129396  1
  O  O34  1  0.80344226  0.88716475  0.25637342  1
  O  O35  1  0.11284616  0.91627449  0.58982109  1
