# generated using pymatgen
data_Mn(PO3)2
_symmetry_space_group_name_H-M   'P 1'
_cell_length_a   7.36902958
_cell_length_b   7.36902958
_cell_length_c   10.18118066
_cell_angle_alpha   66.16836530
_cell_angle_beta   66.16836530
_cell_angle_gamma   69.81910251
_symmetry_Int_Tables_number   1
_chemical_formula_structural   Mn(PO3)2
_chemical_formula_sum   'Mn4 P8 O24'
_cell_volume   451.56344658
_cell_formula_units_Z   4
loop_
 _symmetry_equiv_pos_site_id
 _symmetry_equiv_pos_as_xyz
  1  'x, y, z'
loop_
 _atom_site_type_symbol
 _atom_site_label
 _atom_site_symmetry_multiplicity
 _atom_site_fract_x
 _atom_site_fract_y
 _atom_site_fract_z
 _atom_site_occupancy
  Mn  Mn0  1  -0.00000000  0.50000000  0.50000000  1
  Mn  Mn1  1  0.50000000  -0.00000000  0.00000000  1
  Mn  Mn2  1  0.54606751  0.45393249  0.75000000  1
  Mn  Mn3  1  0.45393249  0.54606751  0.25000000  1
  P  P4  1  0.79973126  0.81195053  0.69501470  1
  P  P5  1  0.18804947  0.20026874  0.80498530  1
  P  P6  1  0.20026874  0.18804947  0.30498530  1
  P  P7  1  0.81195053  0.79973126  0.19501470  1
  P  P8  1  0.75718935  0.22503988  0.47696601  1
  P  P9  1  0.77496012  0.24281065  0.02303399  1
  P  P10  1  0.24281065  0.77496012  0.52303399  1
  P  P11  1  0.22503988  0.75718935  0.97696601  1
  O  O12  1  0.03452670  0.80215058  0.65612032  1
  O  O13  1  0.19784942  0.96547330  0.84387968  1
  O  O14  1  0.96547330  0.19784942  0.34387968  1
  O  O15  1  0.80215058  0.03452670  0.15612032  1
  O  O16  1  0.73257047  0.99618153  0.56077065  1
  O  O17  1  0.00381847  0.26742953  0.93922935  1
  O  O18  1  0.26742953  0.00381847  0.43922935  1
  O  O19  1  0.99618153  0.73257047  0.06077065  1
  O  O20  1  0.69227944  0.85120477  0.84078634  1
  O  O21  1  0.14879523  0.30772056  0.65921366  1
  O  O22  1  0.30772056  0.14879523  0.15921366  1
  O  O23  1  0.85120477  0.69227944  0.34078634  1
  O  O24  1  0.78039874  0.62648644  0.67856611  1
  O  O25  1  0.37351356  0.21960126  0.82143389  1
  O  O26  1  0.21960126  0.37351356  0.32143389  1
  O  O27  1  0.62648644  0.78039874  0.17856611  1
  O  O28  1  0.78830883  0.30233677  0.58073972  1
  O  O29  1  0.69766323  0.21169117  0.91926028  1
  O  O30  1  0.21169117  0.69766323  0.41926028  1
  O  O31  1  0.30233677  0.78830883  0.08073972  1
  O  O32  1  0.40894689  0.66292702  0.58906478  1
  O  O33  1  0.33707298  0.59105311  0.91093522  1
  O  O34  1  0.59105311  0.33707298  0.41093522  1
  O  O35  1  0.66292702  0.40894689  0.08906478  1
