# generated using pymatgen
data_K6Ti2O7
_symmetry_space_group_name_H-M   'P 1'
_cell_length_a   9.27260400
_cell_length_b   6.55551332
_cell_length_c   11.33088140
_cell_angle_alpha   56.58032755
_cell_angle_beta   90.00000000
_cell_angle_gamma   90.00000000
_symmetry_Int_Tables_number   1
_chemical_formula_structural   K6Ti2O7
_chemical_formula_sum   'K12 Ti4 O14'
_cell_volume   574.88515127
_cell_formula_units_Z   2
loop_
 _symmetry_equiv_pos_site_id
 _symmetry_equiv_pos_as_xyz
  1  'x, y, z'
loop_
 _atom_site_type_symbol
 _atom_site_label
 _atom_site_symmetry_multiplicity
 _atom_site_fract_x
 _atom_site_fract_y
 _atom_site_fract_z
 _atom_site_occupancy
  K  K0  1  0.02710350  0.79396564  0.45657512  1
  K  K1  1  0.52710350  0.20603436  0.04342488  1
  K  K2  1  0.84433139  0.94187582  0.93213554  1
  K  K3  1  0.34433139  0.05812418  0.56786446  1
  K  K4  1  0.15566861  0.05812418  0.06786446  1
  K  K5  1  0.65566861  0.94187582  0.43213554  1
  K  K6  1  0.79622755  0.58943755  0.78098642  1
  K  K7  1  0.29622755  0.41056245  0.71901358  1
  K  K8  1  0.20377245  0.41056245  0.21901358  1
  K  K9  1  0.70377245  0.58943755  0.28098642  1
  K  K10  1  0.97289650  0.20603436  0.54342488  1
  K  K11  1  0.47289650  0.79396564  0.95657512  1
  Ti  Ti12  1  0.14506534  0.69181526  0.86688067  1
  Ti  Ti13  1  0.64506534  0.30818474  0.63311933  1
  Ti  Ti14  1  0.85493466  0.30818474  0.13311933  1
  Ti  Ti15  1  0.35493466  0.69181526  0.36688067  1
  O  O16  1  -0.00000000  0.50000000  0.00000000  1
  O  O17  1  0.50000000  0.50000000  0.50000000  1
  O  O18  1  0.82455123  0.03483085  0.13348468  1
  O  O19  1  0.32455123  0.96516915  0.36651532  1
  O  O20  1  0.69780370  0.50194365  0.07223403  1
  O  O21  1  0.19780370  0.49805635  0.42776597  1
  O  O22  1  0.30219630  0.49805635  0.92776597  1
  O  O23  1  0.80219630  0.50194365  0.57223403  1
  O  O24  1  0.90334107  0.23589425  0.30622227  1
  O  O25  1  0.40334107  0.76410575  0.19377773  1
  O  O26  1  0.09665893  0.76410575  0.69377773  1
  O  O27  1  0.59665893  0.23589425  0.80622227  1
  O  O28  1  0.67544877  0.03483085  0.63348468  1
  O  O29  1  0.17544877  0.96516915  0.86651532  1
