# generated using pymatgen
data_Na2Be(GeO3)2
_symmetry_space_group_name_H-M   'P 1'
_cell_length_a   15.19616213
_cell_length_b   11.32824772
_cell_length_c   11.30759178
_cell_angle_alpha   84.33984388
_cell_angle_beta   47.88780041
_cell_angle_gamma   47.77235571
_symmetry_Int_Tables_number   1
_chemical_formula_structural   Na2Be(GeO3)2
_chemical_formula_sum   'Na12 Be6 Ge12 O36'
_cell_volume   820.79169789
_cell_formula_units_Z   6
loop_
 _symmetry_equiv_pos_site_id
 _symmetry_equiv_pos_as_xyz
  1  'x, y, z'
loop_
 _atom_site_type_symbol
 _atom_site_label
 _atom_site_symmetry_multiplicity
 _atom_site_fract_x
 _atom_site_fract_y
 _atom_site_fract_z
 _atom_site_occupancy
  Na  Na0  1  0.75804864  0.75804864  0.24195136  1
  Na  Na1  1  0.00804864  0.00804864  0.49195136  1
  Na  Na2  1  0.39156442  0.39156442  0.60843558  1
  Na  Na3  1  0.64156442  0.64156442  0.85843558  1
  Na  Na4  1  0.11608130  0.43551673  0.53960047  1
  Na  Na5  1  0.43551673  0.11608130  0.90880150  1
  Na  Na6  1  0.71039953  0.34119850  0.13391870  1
  Na  Na7  1  0.34119850  0.71039953  0.81448327  1
  Na  Na8  1  0.77160511  0.05713426  0.91237588  1
  Na  Na9  1  0.05713426  0.77160511  0.25888575  1
  Na  Na10  1  0.33762412  0.99111425  0.47839489  1
  Na  Na11  1  0.99111425  0.33762412  0.19286574  1
  Be  Be12  1  0.91910896  0.22505282  0.74344377  1
  Be  Be13  1  0.22505282  0.91910896  0.11239444  1
  Be  Be14  1  0.50655623  0.13760556  0.33089104  1
  Be  Be15  1  0.13760556  0.50655623  0.02494718  1
  Be  Be16  1  0.61630941  0.61630941  0.38369059  1
  Be  Be17  1  0.86630941  0.86630941  0.63369059  1
  Ge  Ge18  1  0.25024982  0.25024982  0.74975018  1
  Ge  Ge19  1  0.50024982  0.50024982  0.99975018  1
  Ge  Ge20  1  0.90401793  0.90401793  0.09598207  1
  Ge  Ge21  1  0.15401793  0.15401793  0.34598207  1
  Ge  Ge22  1  0.28661295  0.55708064  0.41596443  1
  Ge  Ge23  1  0.55708064  0.28661295  0.74034198  1
  Ge  Ge24  1  0.83403557  0.50965802  0.96338705  1
  Ge  Ge25  1  0.50965802  0.83403557  0.69291936  1
  Ge  Ge26  1  0.58444777  0.94159450  0.04570183  1
  Ge  Ge27  1  0.94159450  0.58444777  0.42825590  1
  Ge  Ge28  1  0.20429817  0.82174410  0.66555223  1
  Ge  Ge29  1  0.82174410  0.20429817  0.30840550  1
  O  O30  1  0.14596266  0.76154967  0.83676029  1
  O  O31  1  0.76154967  0.14596266  0.25572738  1
  O  O32  1  0.41323971  0.99427262  0.10403734  1
  O  O33  1  0.99427262  0.41323971  0.48845033  1
  O  O34  1  0.32721086  0.38782618  0.46163935  1
  O  O35  1  0.38782618  0.32721086  0.82332361  1
  O  O36  1  0.78836065  0.42667639  0.92278914  1
  O  O37  1  0.42667639  0.78836065  0.86217382  1
  O  O38  1  0.48684175  0.41241285  0.14355253  1
  O  O39  1  0.41241285  0.48684175  0.95719187  1
  O  O40  1  0.10644747  0.29280813  0.76315825  1
  O  O41  1  0.29280813  0.10644747  0.83758715  1
  O  O42  1  0.80089965  0.66722510  0.88952014  1
  O  O43  1  0.66722510  0.80089965  0.64235412  1
  O  O44  1  0.36047986  0.60764588  0.44910035  1
  O  O45  1  0.60764588  0.36047986  0.58277490  1
  O  O46  1  0.66030622  0.99563425  0.88213865  1
  O  O47  1  0.99563425  0.66030622  0.46191988  1
  O  O48  1  0.36786135  0.78808012  0.58969378  1
  O  O49  1  0.78808012  0.36786135  0.25436575  1
  O  O50  1  0.13497014  0.09093657  0.50034328  1
  O  O51  1  0.09093657  0.13497014  0.27375001  1
  O  O52  1  0.74965672  0.97624999  0.11502986  1
  O  O53  1  0.97624999  0.74965672  0.15906343  1
  O  O54  1  0.97101570  0.06350709  0.79500528  1
  O  O55  1  0.06350709  0.97101570  0.17047194  1
  O  O56  1  0.45499472  0.07952806  0.27898430  1
  O  O57  1  0.07952806  0.45499472  0.18649191  1
  O  O58  1  0.48054023  0.10211545  0.49095329  1
  O  O59  1  0.10211545  0.48054023  0.92639103  1
  O  O60  1  0.75904671  0.32360897  0.76945977  1
  O  O61  1  0.32360897  0.75904671  0.14788455  1
  O  O62  1  0.67688600  0.65253136  0.21295245  1
  O  O63  1  0.65253136  0.67688600  0.45763019  1
  O  O64  1  0.03704755  0.79236981  0.57311400  1
  O  O65  1  0.79236981  0.03704755  0.59746864  1
