# generated using pymatgen
data_Cs(BBr)6
_symmetry_space_group_name_H-M   'P 1'
_cell_length_a   17.03282040
_cell_length_b   17.03282137
_cell_length_c   17.03282103
_cell_angle_alpha   34.17066383
_cell_angle_beta   34.17066431
_cell_angle_gamma   34.17066860
_symmetry_Int_Tables_number   1
_chemical_formula_structural   Cs(BBr)6
_chemical_formula_sum   'Cs4 B24 Br24'
_cell_volume   1389.92428495
_cell_formula_units_Z   4
loop_
 _symmetry_equiv_pos_site_id
 _symmetry_equiv_pos_as_xyz
  1  'x, y, z'
loop_
 _atom_site_type_symbol
 _atom_site_label
 _atom_site_symmetry_multiplicity
 _atom_site_fract_x
 _atom_site_fract_y
 _atom_site_fract_z
 _atom_site_occupancy
  Cs  Cs0  1  0.37325393  0.37325393  0.37325393  1
  Cs  Cs1  1  0.79126912  0.79126912  0.79126912  1
  Cs  Cs2  1  0.20873088  0.20873088  0.20873088  1
  Cs  Cs3  1  0.62674607  0.62674607  0.62674607  1
  B  B4  1  0.91628480  0.11962242  0.04849964  1
  B  B5  1  0.81317185  0.14007072  0.02661780  1
  B  B6  1  0.67862781  0.44577075  0.35556273  1
  B  B7  1  0.14007072  0.02661780  0.81317185  1
  B  B8  1  0.64443727  0.32137219  0.55422925  1
  B  B9  1  0.08371520  0.88037758  0.95150036  1
  B  B10  1  0.32137219  0.55422925  0.64443727  1
  B  B11  1  0.50155456  0.55704144  0.35737669  1
  B  B12  1  0.02661780  0.81317185  0.14007072  1
  B  B13  1  0.35556273  0.67862781  0.44577075  1
  B  B14  1  0.55422925  0.64443727  0.32137219  1
  B  B15  1  0.97338220  0.18682815  0.85992928  1
  B  B16  1  0.18682815  0.85992928  0.97338220  1
  B  B17  1  0.95150036  0.08371520  0.88037758  1
  B  B18  1  0.04849964  0.91628480  0.11962242  1
  B  B19  1  0.85992928  0.97338220  0.18682815  1
  B  B20  1  0.88037758  0.95150036  0.08371520  1
  B  B21  1  0.44295856  0.64262331  0.49844544  1
  B  B22  1  0.55704144  0.35737669  0.50155456  1
  B  B23  1  0.44577075  0.35556273  0.67862781  1
  B  B24  1  0.49844544  0.44295856  0.64262331  1
  B  B25  1  0.35737669  0.50155456  0.55704144  1
  B  B26  1  0.11962242  0.04849964  0.91628480  1
  B  B27  1  0.64262331  0.49844544  0.44295856  1
  Br  Br28  1  0.80648957  0.49786587  0.37674271  1
  Br  Br29  1  0.37674271  0.80648957  0.49786587  1
  Br  Br30  1  0.05630710  0.59727527  0.30046792  1
  Br  Br31  1  0.18058060  0.74177127  0.89685876  1
  Br  Br32  1  0.81206266  0.11853602  0.61557971  1
  Br  Br33  1  0.74177127  0.89685876  0.18058060  1
  Br  Br34  1  0.49786587  0.37674271  0.80648957  1
  Br  Br35  1  0.88146398  0.38442029  0.18793734  1
  Br  Br36  1  0.69953208  0.94369290  0.40272473  1
  Br  Br37  1  0.25822873  0.10314124  0.81941940  1
  Br  Br38  1  0.40272473  0.69953208  0.94369290  1
  Br  Br39  1  0.50213413  0.62325729  0.19351043  1
  Br  Br40  1  0.18793734  0.88146398  0.38442029  1
  Br  Br41  1  0.10314124  0.81941940  0.25822873  1
  Br  Br42  1  0.11853602  0.61557971  0.81206266  1
  Br  Br43  1  0.61557971  0.81206266  0.11853602  1
  Br  Br44  1  0.89685876  0.18058060  0.74177127  1
  Br  Br45  1  0.81941940  0.25822873  0.10314124  1
  Br  Br46  1  0.19351043  0.50213413  0.62325729  1
  Br  Br47  1  0.30046792  0.05630710  0.59727527  1
  Br  Br48  1  0.62325729  0.19351043  0.50213413  1
  Br  Br49  1  0.94369290  0.40272473  0.69953208  1
  Br  Br50  1  0.38442029  0.18793734  0.88146398  1
  Br  Br51  1  0.59727527  0.30046792  0.05630710  1
