# generated using pymatgen
data_Ba2GeS4
_symmetry_space_group_name_H-M   'P 1'
_cell_length_a   6.89661790
_cell_length_b   9.06505193
_cell_length_c   12.44325749
_cell_angle_alpha   90.00000000
_cell_angle_beta   90.00000000
_cell_angle_gamma   90.00000000
_symmetry_Int_Tables_number   1
_chemical_formula_structural   Ba2GeS4
_chemical_formula_sum   'Ba8 Ge4 S16'
_cell_volume   777.93005301
_cell_formula_units_Z   4
loop_
 _symmetry_equiv_pos_site_id
 _symmetry_equiv_pos_as_xyz
  1  'x, y, z'
loop_
 _atom_site_type_symbol
 _atom_site_label
 _atom_site_symmetry_multiplicity
 _atom_site_fract_x
 _atom_site_fract_y
 _atom_site_fract_z
 _atom_site_occupancy
  Ba  Ba0  1  0.75000000  0.87187931  0.08156976  1
  Ba  Ba1  1  0.25000000  0.12812069  0.91843024  1
  Ba  Ba2  1  0.75000000  0.37187931  0.41843024  1
  Ba  Ba3  1  0.25000000  0.62812069  0.58156976  1
  Ba  Ba4  1  0.75000000  0.52144735  0.82880684  1
  Ba  Ba5  1  0.25000000  0.47855265  0.17119316  1
  Ba  Ba6  1  0.75000000  0.02144735  0.67119316  1
  Ba  Ba7  1  0.25000000  0.97855265  0.32880684  1
  Ge  Ge8  1  0.75000000  0.27112494  0.07310427  1
  Ge  Ge9  1  0.25000000  0.72887506  0.92689573  1
  Ge  Ge10  1  0.75000000  0.77112494  0.42689573  1
  Ge  Ge11  1  0.25000000  0.22887506  0.57310427  1
  S  S12  1  0.75000000  0.51182199  0.09488521  1
  S  S13  1  0.25000000  0.48817801  0.90511479  1
  S  S14  1  0.75000000  0.01182199  0.40511479  1
  S  S15  1  0.25000000  0.98817801  0.59488521  1
  S  S16  1  0.75000000  0.19265831  0.90454462  1
  S  S17  1  0.25000000  0.80734169  0.09545538  1
  S  S18  1  0.75000000  0.69265831  0.59545538  1
  S  S19  1  0.25000000  0.30734169  0.40454462  1
  S  S20  1  0.48917004  0.17234002  0.14358943  1
  S  S21  1  0.98917004  0.82765998  0.85641057  1
  S  S22  1  0.01082996  0.67234002  0.35641057  1
  S  S23  1  0.51082996  0.32765998  0.64358943  1
  S  S24  1  0.51082996  0.82765998  0.85641057  1
  S  S25  1  0.01082996  0.17234002  0.14358943  1
  S  S26  1  0.98917004  0.32765998  0.64358943  1
  S  S27  1  0.48917004  0.67234002  0.35641057  1
