# generated using pymatgen
data_CdI2
_symmetry_space_group_name_H-M   'P 1'
_cell_length_a   4.28880449
_cell_length_b   4.28880441
_cell_length_c   43.28772522
_cell_angle_alpha   90.01644171
_cell_angle_beta   89.98357514
_cell_angle_gamma   119.99921802
_symmetry_Int_Tables_number   1
_chemical_formula_structural   CdI2
_chemical_formula_sum   'Cd6 I12'
_cell_volume   689.55876664
_cell_formula_units_Z   6
loop_
 _symmetry_equiv_pos_site_id
 _symmetry_equiv_pos_as_xyz
  1  'x, y, z'
loop_
 _atom_site_type_symbol
 _atom_site_label
 _atom_site_symmetry_multiplicity
 _atom_site_fract_x
 _atom_site_fract_y
 _atom_site_fract_z
 _atom_site_occupancy
  Cd  Cd0  1  0.00008886  -0.00008886  0.54184717  1
  Cd  Cd1  1  0.33349117  0.66650883  0.70815232  1
  Cd  Cd2  1  -0.00002921  0.00002921  0.87501850  1
  Cd  Cd3  1  0.66699119  0.33300881  0.04173463  1
  Cd  Cd4  1  0.66662444  0.33337656  0.37486667  1
  Cd  Cd5  1  -0.00002061  0.00002061  0.20833945  1
  I  I6  1  0.33358370  0.66641630  0.08152381  1
  I  I7  1  0.66639114  0.33360886  0.83527967  1
  I  I8  1  -0.00040125  0.00040125  0.33517954  1
  I  I9  1  0.33278538  0.66721462  0.91484374  1
  I  I10  1  0.33338813  0.66661187  0.58153970  1
  I  I11  1  0.00064836  -0.00064836  0.00196624  1
  I  I12  1  0.66672195  0.33327805  0.66842503  1
  I  I13  1  0.66723093  0.33276907  0.50208303  1
  I  I14  1  0.33324715  0.66675285  0.41463756  1
  I  I15  1  0.33269130  0.66730870  0.24810019  1
  I  I16  1  0.00027874  -0.00027874  0.74787416  1
  I  I17  1  0.66628664  0.33371336  0.16858960  1
