# generated using pymatgen
data_Cs7Ni4F15
_symmetry_space_group_name_H-M   'P 1'
_cell_length_a   10.84930163
_cell_length_b   7.85524804
_cell_length_c   11.43301189
_cell_angle_alpha   87.18509327
_cell_angle_beta   90.00000000
_cell_angle_gamma   90.00000000
_symmetry_Int_Tables_number   1
_chemical_formula_structural   Cs7Ni4F15
_chemical_formula_sum   'Cs14 Ni8 F30'
_cell_volume   973.19081820
_cell_formula_units_Z   2
loop_
 _symmetry_equiv_pos_site_id
 _symmetry_equiv_pos_as_xyz
  1  'x, y, z'
loop_
 _atom_site_type_symbol
 _atom_site_label
 _atom_site_symmetry_multiplicity
 _atom_site_fract_x
 _atom_site_fract_y
 _atom_site_fract_z
 _atom_site_occupancy
  Cs  Cs0  1  0.68036979  0.50351354  0.52783450  1
  Cs  Cs1  1  0.31963021  0.49648646  0.47216550  1
  Cs  Cs2  1  0.81963021  0.50351354  0.02783450  1
  Cs  Cs3  1  0.34570797  0.16265503  0.19619438  1
  Cs  Cs4  1  0.99520744  0.66920058  0.66772863  1
  Cs  Cs5  1  0.65429203  0.83734497  0.80380562  1
  Cs  Cs6  1  0.00479256  0.33079942  0.33227137  1
  Cs  Cs7  1  0.00000000  0.00000000  0.00000000  1
  Cs  Cs8  1  0.15429203  0.16265503  0.69619438  1
  Cs  Cs9  1  0.49520744  0.33079942  0.83227137  1
  Cs  Cs10  1  0.18036979  0.49648646  0.97216550  1
  Cs  Cs11  1  0.50000000  0.00000000  0.50000000  1
  Cs  Cs12  1  0.84570797  0.83734497  0.30380562  1
  Cs  Cs13  1  0.50479256  0.66920058  0.16772863  1
  Ni  Ni14  1  0.17311578  0.74220744  0.22961092  1
  Ni  Ni15  1  0.33767156  0.92289894  0.92881298  1
  Ni  Ni16  1  0.83767156  0.07710106  0.57118702  1
  Ni  Ni17  1  0.82688422  0.25779256  0.77038908  1
  Ni  Ni18  1  0.16232844  0.92289894  0.42881298  1
  Ni  Ni19  1  0.66232844  0.07710106  0.07118702  1
  Ni  Ni20  1  0.32688422  0.74220744  0.72961092  1
  Ni  Ni21  1  0.67311578  0.25779256  0.27038908  1
  F  F22  1  0.52732026  0.33118684  0.35624396  1
  F  F23  1  0.19062331  0.82977508  0.83674018  1
  F  F24  1  0.97267974  0.33118684  0.85624396  1
  F  F25  1  0.59276658  0.31028144  0.10658284  1
  F  F26  1  0.76405707  0.85273304  0.55542232  1
  F  F27  1  0.40723342  0.68971856  0.89341716  1
  F  F28  1  0.69062331  0.17022492  0.66325982  1
  F  F29  1  0.60232154  0.02135744  0.23918071  1
  F  F30  1  0.25181935  0.51503660  0.72220194  1
  F  F31  1  0.89767846  0.02135744  0.73918071  1
  F  F32  1  0.80937669  0.17022492  0.16325982  1
  F  F33  1  0.09276658  0.68971856  0.39341716  1
  F  F34  1  0.26471180  0.83185036  0.08287855  1
  F  F35  1  0.39767846  0.97864256  0.76081929  1
  F  F36  1  0.75181935  0.48496340  0.77779806  1
  F  F37  1  0.76471180  0.16814964  0.41712145  1
  F  F38  1  0.10232154  0.97864256  0.26081929  1
  F  F39  1  0.73528820  0.16814964  0.91712145  1
  F  F40  1  0.02732026  0.66881316  0.14375604  1
  F  F41  1  0.90723342  0.31028144  0.60658284  1
  F  F42  1  0.73594293  0.85273304  0.05542232  1
  F  F43  1  0.23594293  0.14726696  0.44457768  1
  F  F44  1  0.30937669  0.82977508  0.33674018  1
  F  F45  1  0.26405707  0.14726696  0.94457768  1
  F  F46  1  0.74818065  0.48496340  0.27779806  1
  F  F47  1  0.47267974  0.66881316  0.64375604  1
  F  F48  1  0.24818065  0.51503660  0.22220194  1
  F  F49  1  0.23528820  0.83185036  0.58287855  1
  F  F50  1  0.00000000  0.00000000  0.50000000  1
  F  F51  1  0.50000000  0.00000000  0.00000000  1
