# generated using pymatgen
data_Li15Cr2N9
_symmetry_space_group_name_H-M   'P 1'
_cell_length_a   9.27265953
_cell_length_b   10.09724823
_cell_length_c   10.10542572
_cell_angle_alpha   90.00000000
_cell_angle_beta   90.00000000
_cell_angle_gamma   90.00000000
_symmetry_Int_Tables_number   1
_chemical_formula_structural   Li15Cr2N9
_chemical_formula_sum   'Li60 Cr8 N36'
_cell_volume   946.15428595
_cell_formula_units_Z   4
loop_
 _symmetry_equiv_pos_site_id
 _symmetry_equiv_pos_as_xyz
  1  'x, y, z'
loop_
 _atom_site_type_symbol
 _atom_site_label
 _atom_site_symmetry_multiplicity
 _atom_site_fract_x
 _atom_site_fract_y
 _atom_site_fract_z
 _atom_site_occupancy
  Li  Li0  1  0.74859421  0.74963598  0.25651084  1
  Li  Li1  1  0.74148993  0.77755832  0.91070503  1
  Li  Li2  1  0.74113628  0.90955166  0.72119069  1
  Li  Li3  1  0.74234404  0.58768972  0.78292405  1
  Li  Li4  1  0.74272045  0.71637584  0.58695935  1
  Li  Li5  1  0.71462567  0.40553545  0.93684965  1
  Li  Li6  1  0.73224160  0.56297043  0.40013655  1
  Li  Li7  1  0.71861997  0.92818287  0.09702036  1
  Li  Li8  1  0.73874895  0.10160579  0.57395239  1
  Li  Li9  1  0.51676210  0.08369411  0.22687626  1
  Li  Li10  1  0.51547420  0.23444584  0.40359353  1
  Li  Li11  1  0.51599366  0.26739209  0.08180935  1
  Li  Li12  1  0.51604330  0.40701955  0.25995210  1
  Li  Li13  1  0.50070930  0.26945281  0.76936522  1
  Li  Li14  1  0.49929070  0.76945281  0.23063478  1
  Li  Li15  1  0.50099868  0.10005631  0.60030482  1
  Li  Li16  1  0.49900132  0.60005631  0.39969518  1
  Li  Li17  1  0.48400634  0.76739209  0.91819065  1
  Li  Li18  1  0.48395670  0.90701955  0.74004790  1
  Li  Li19  1  0.48323790  0.58369411  0.77312374  1
  Li  Li20  1  0.48452580  0.73444584  0.59640647  1
  Li  Li21  1  0.28138003  0.42818287  0.90297964  1
  Li  Li22  1  0.28537433  0.90553545  0.06315035  1
  Li  Li23  1  0.26125105  0.60160579  0.42604761  1
  Li  Li24  1  0.26775840  0.06297043  0.59986345  1
  Li  Li25  1  0.25886372  0.40955166  0.27880931  1
  Li  Li26  1  0.25851007  0.27755832  0.08929497  1
  Li  Li27  1  0.25727955  0.21637584  0.41304065  1
  Li  Li28  1  0.25765596  0.08768972  0.21707595  1
  Li  Li29  1  0.24859421  0.74963598  0.24348916  1
  Li  Li30  1  0.25140579  0.24963598  0.74348916  1
  Li  Li31  1  0.24113628  0.90955166  0.77880931  1
  Li  Li32  1  0.24272045  0.71637584  0.91304065  1
  Li  Li33  1  0.24148993  0.77755832  0.58929497  1
  Li  Li34  1  0.24234404  0.58768972  0.71707595  1
  Li  Li35  1  0.21861997  0.92818287  0.40297964  1
  Li  Li36  1  0.21462567  0.40553545  0.56315035  1
  Li  Li37  1  0.23874895  0.10160579  0.92604761  1
  Li  Li38  1  0.23224160  0.56297043  0.09986345  1
  Li  Li39  1  0.01599366  0.26739209  0.41819065  1
  Li  Li40  1  0.01604330  0.40701955  0.24004790  1
  Li  Li41  1  0.01676210  0.08369411  0.27312374  1
  Li  Li42  1  0.01547420  0.23444584  0.09640647  1
  Li  Li43  1  0.00099868  0.10005631  0.89969518  1
  Li  Li44  1  0.99900132  0.60005631  0.10030482  1
  Li  Li45  1  0.00070930  0.26945281  0.73063478  1
  Li  Li46  1  0.99929070  0.76945281  0.26936522  1
  Li  Li47  1  0.98323790  0.58369411  0.72687626  1
  Li  Li48  1  0.98452580  0.73444584  0.90359353  1
  Li  Li49  1  0.98400634  0.76739209  0.58180935  1
  Li  Li50  1  0.98395670  0.90701955  0.75995210  1
  Li  Li51  1  0.76775840  0.06297043  0.90013655  1
  Li  Li52  1  0.78138003  0.42818287  0.59702036  1
  Li  Li53  1  0.78537433  0.90553545  0.43684965  1
  Li  Li54  1  0.76125105  0.60160579  0.07395239  1
  Li  Li55  1  0.75851007  0.27755832  0.41070503  1
  Li  Li56  1  0.75765596  0.08768972  0.28292405  1
  Li  Li57  1  0.75886372  0.40955166  0.22119069  1
  Li  Li58  1  0.75727955  0.21637584  0.08695935  1
  Li  Li59  1  0.75140579  0.24963598  0.75651084  1
  Cr  Cr60  1  0.50387527  0.07831238  0.91902185  1
  Cr  Cr61  1  0.50352076  0.91853522  0.42196289  1
  Cr  Cr62  1  0.49612473  0.57831238  0.08097815  1
  Cr  Cr63  1  0.49647924  0.41853522  0.57803711  1
  Cr  Cr64  1  0.99612473  0.57831238  0.41902185  1
  Cr  Cr65  1  0.99647924  0.41853522  0.92196289  1
  Cr  Cr66  1  0.00387527  0.07831238  0.58097815  1
  Cr  Cr67  1  0.00352076  0.91853522  0.07803711  1
  N  N68  1  0.64309293  0.24803285  0.24747976  1
  N  N69  1  0.62476366  0.21141733  0.91777619  1
  N  N70  1  0.61193864  0.58816255  0.22187220  1
  N  N71  1  0.61242199  0.27833537  0.58784516  1
  N  N72  1  0.62427506  0.91770113  0.28909050  1
  N  N73  1  0.60604759  0.59060545  0.94242123  1
  N  N74  1  0.60801485  0.93597114  0.90987702  1
  N  N75  1  0.60389242  0.56017102  0.58045106  1
  N  N76  1  0.60608485  0.91848781  0.56635826  1
  N  N77  1  0.39391515  0.41848781  0.43364174  1
  N  N78  1  0.39610758  0.06017102  0.41954894  1
  N  N79  1  0.39198515  0.43597114  0.09012298  1
  N  N80  1  0.39395241  0.09060545  0.05757877  1
  N  N81  1  0.37572494  0.41770113  0.71090950  1
  N  N82  1  0.38757801  0.77833537  0.41215484  1
  N  N83  1  0.38806136  0.08816255  0.77812780  1
  N  N84  1  0.37523634  0.71141733  0.08222381  1
  N  N85  1  0.35690707  0.74803285  0.75252024  1
  N  N86  1  0.14309293  0.24803285  0.25252024  1
  N  N87  1  0.11242199  0.27833537  0.91215484  1
  N  N88  1  0.11193864  0.58816255  0.27812780  1
  N  N89  1  0.12476366  0.21141733  0.58222381  1
  N  N90  1  0.12427506  0.91770113  0.21090950  1
  N  N91  1  0.10608485  0.91848781  0.93364174  1
  N  N92  1  0.10389242  0.56017102  0.91954894  1
  N  N93  1  0.10801485  0.93597114  0.59012298  1
  N  N94  1  0.10604759  0.59060545  0.55757877  1
  N  N95  1  0.89610758  0.06017102  0.08045106  1
  N  N96  1  0.89395241  0.09060545  0.44242123  1
  N  N97  1  0.89198515  0.43597114  0.40987702  1
  N  N98  1  0.89391515  0.41848781  0.06635826  1
  N  N99  1  0.87572494  0.41770113  0.78909050  1
  N  N100  1  0.88806136  0.08816255  0.72187220  1
  N  N101  1  0.87523634  0.71141733  0.41777619  1
  N  N102  1  0.88757801  0.77833537  0.08784516  1
  N  N103  1  0.85690707  0.74803285  0.74747976  1
