# generated using pymatgen
data_K3LiSiO4
_symmetry_space_group_name_H-M   'P 1'
_cell_length_a   9.66668751
_cell_length_b   11.26771762
_cell_length_c   11.77011821
_cell_angle_alpha   58.55540085
_cell_angle_beta   90.00000000
_cell_angle_gamma   90.00000000
_symmetry_Int_Tables_number   1
_chemical_formula_structural   K3LiSiO4
_chemical_formula_sum   'K24 Li8 Si8 O32'
_cell_volume   1093.74807134
_cell_formula_units_Z   8
loop_
 _symmetry_equiv_pos_site_id
 _symmetry_equiv_pos_as_xyz
  1  'x, y, z'
loop_
 _atom_site_type_symbol
 _atom_site_label
 _atom_site_symmetry_multiplicity
 _atom_site_fract_x
 _atom_site_fract_y
 _atom_site_fract_z
 _atom_site_occupancy
  K  K0  1  0.91836495  0.14284155  0.89142444  1
  K  K1  1  0.08112484  0.64554238  0.94084477  1
  K  K2  1  0.58112484  0.35445762  0.55915523  1
  K  K3  1  0.76966966  0.68844785  0.34143619  1
  K  K4  1  0.26966966  0.31155215  0.15856381  1
  K  K5  1  0.08889503  0.65370278  0.45689786  1
  K  K6  1  0.25838102  0.18687847  0.47065043  1
  K  K7  1  0.75838102  0.81312153  0.02934957  1
  K  K8  1  0.91110497  0.34629722  0.54310214  1
  K  K9  1  0.08865795  0.83719296  0.59255908  1
  K  K10  1  0.41110497  0.65370278  0.95689786  1
  K  K11  1  0.58889503  0.34629722  0.04310214  1
  K  K12  1  0.41134205  0.83719296  0.09255908  1
  K  K13  1  0.41836495  0.85715845  0.60857556  1
  K  K14  1  0.58163505  0.14284155  0.39142444  1
  K  K15  1  0.91887516  0.35445762  0.05915523  1
  K  K16  1  0.73033034  0.68844785  0.84143619  1
  K  K17  1  0.74161898  0.81312153  0.52934957  1
  K  K18  1  0.24161898  0.18687847  0.97065043  1
  K  K19  1  0.08163505  0.85715845  0.10857556  1
  K  K20  1  0.58865795  0.16280704  0.90744092  1
  K  K21  1  0.41887516  0.64554238  0.44084477  1
  K  K22  1  0.23033034  0.31155215  0.65856381  1
  K  K23  1  0.91134205  0.16280704  0.40744092  1
  Li  Li24  1  0.86414297  0.01325578  0.71589667  1
  Li  Li25  1  0.12103398  0.51668293  0.76439913  1
  Li  Li26  1  0.37896602  0.51668293  0.26439913  1
  Li  Li27  1  0.63585703  0.01325578  0.21589667  1
  Li  Li28  1  0.36414297  0.98674422  0.78410333  1
  Li  Li29  1  0.13585703  0.98674422  0.28410333  1
  Li  Li30  1  0.62103398  0.48331707  0.73560087  1
  Li  Li31  1  0.87896602  0.48331707  0.23560087  1
  Si  Si32  1  0.87378986  0.48056472  0.73457978  1
  Si  Si33  1  0.38866463  0.97610514  0.28280992  1
  Si  Si34  1  0.61133537  0.02389486  0.71719008  1
  Si  Si35  1  0.37378986  0.51943528  0.76542022  1
  Si  Si36  1  0.11133537  0.97610514  0.78280992  1
  Si  Si37  1  0.62621014  0.48056472  0.23457978  1
  Si  Si38  1  0.88866463  0.02389486  0.21719008  1
  Si  Si39  1  0.12621014  0.51943528  0.26542022  1
  O  O40  1  0.05833303  0.39780961  0.24337585  1
  O  O41  1  0.27834962  0.87686019  0.26340481  1
  O  O42  1  0.52387396  0.89007962  0.37340948  1
  O  O43  1  0.95603907  0.90493937  0.36210335  1
  O  O44  1  0.77834962  0.12313981  0.23659519  1
  O  O45  1  0.04396093  0.09506063  0.63789665  1
  O  O46  1  0.27407735  0.45544709  0.89842229  1
  O  O47  1  0.45603907  0.09506063  0.13789665  1
  O  O48  1  0.94166697  0.60219039  0.75662415  1
  O  O49  1  0.50974404  0.60055235  0.77665410  1
  O  O50  1  0.77050301  0.37763378  0.85873071  1
  O  O51  1  0.44166697  0.39780961  0.74337585  1
  O  O52  1  0.79720464  0.95523297  0.14725782  1
  O  O53  1  0.22949699  0.62236622  0.14126929  1
  O  O54  1  0.27050301  0.62236622  0.64126929  1
  O  O55  1  0.54396093  0.90493937  0.86210335  1
  O  O56  1  0.29720464  0.04476703  0.35274218  1
  O  O57  1  0.02387396  0.10992038  0.12659052  1
  O  O58  1  0.77407735  0.54455291  0.60157771  1
  O  O59  1  0.72592265  0.54455291  0.10157771  1
  O  O60  1  0.20279536  0.04476703  0.85274218  1
  O  O61  1  0.22165038  0.87686019  0.76340481  1
  O  O62  1  0.72165038  0.12313981  0.73659519  1
  O  O63  1  0.97612604  0.89007962  0.87340948  1
  O  O64  1  0.49025596  0.39944765  0.22334590  1
  O  O65  1  0.99025596  0.60055235  0.27665410  1
  O  O66  1  0.47612604  0.10992038  0.62659052  1
  O  O67  1  0.22592265  0.45544709  0.39842229  1
  O  O68  1  0.55833303  0.60219039  0.25662415  1
  O  O69  1  0.00974404  0.39944765  0.72334590  1
  O  O70  1  0.72949699  0.37763378  0.35873071  1
  O  O71  1  0.70279536  0.95523297  0.64725782  1
