# generated using pymatgen
data_CdSiO3
_symmetry_space_group_name_H-M   'P 1'
_cell_length_a   7.28599731
_cell_length_b   6.99266080
_cell_length_c   15.10775788
_cell_angle_alpha   85.12390400
_cell_angle_beta   90.00000000
_cell_angle_gamma   90.00000000
_symmetry_Int_Tables_number   1
_chemical_formula_structural   CdSiO3
_chemical_formula_sum   'Cd12 Si12 O36'
_cell_volume   766.93199250
_cell_formula_units_Z   12
loop_
 _symmetry_equiv_pos_site_id
 _symmetry_equiv_pos_as_xyz
  1  'x, y, z'
loop_
 _atom_site_type_symbol
 _atom_site_label
 _atom_site_symmetry_multiplicity
 _atom_site_fract_x
 _atom_site_fract_y
 _atom_site_fract_z
 _atom_site_occupancy
  Cd  Cd0  1  0.62370526  0.98735340  0.24847894  1
  Cd  Cd1  1  0.37184681  0.74958469  0.09971895  1
  Cd  Cd2  1  0.37989350  0.25405721  0.39795332  1
  Cd  Cd3  1  0.12370526  0.01264660  0.25152106  1
  Cd  Cd4  1  0.62010650  0.74594279  0.60204668  1
  Cd  Cd5  1  0.87184681  0.25041531  0.40028105  1
  Cd  Cd6  1  0.87989350  0.74594279  0.10204668  1
  Cd  Cd7  1  0.12010650  0.25405721  0.89795332  1
  Cd  Cd8  1  0.37629474  0.01264660  0.75152106  1
  Cd  Cd9  1  0.12815319  0.74958469  0.59971895  1
  Cd  Cd10  1  0.62815319  0.25041531  0.90028105  1
  Cd  Cd11  1  0.87629474  0.98735340  0.74847894  1
  Si  Si12  1  0.41068942  0.76007848  0.41010342  1
  Si  Si13  1  0.83801377  0.76101933  0.40988047  1
  Si  Si14  1  0.87670794  0.45344857  0.69862144  1
  Si  Si15  1  0.58931058  0.23992152  0.58989658  1
  Si  Si16  1  0.33801377  0.23898067  0.09011953  1
  Si  Si17  1  0.62329206  0.45344857  0.19862144  1
  Si  Si18  1  0.91068942  0.23992152  0.08989658  1
  Si  Si19  1  0.66198623  0.76101933  0.90988047  1
  Si  Si20  1  0.08931058  0.76007848  0.91010342  1
  Si  Si21  1  0.37670794  0.54655143  0.80137856  1
  Si  Si22  1  0.12329206  0.54655143  0.30137856  1
  Si  Si23  1  0.16198623  0.23898067  0.59011953  1
  O  O24  1  0.37596408  0.29839591  0.60005577  1
  O  O25  1  0.87596408  0.70160409  0.89994423  1
  O  O26  1  0.55496986  0.58474644  0.86561916  1
  O  O27  1  0.44503014  0.41525356  0.13438084  1
  O  O28  1  0.05496986  0.41525356  0.63438084  1
  O  O29  1  0.62403592  0.70160409  0.39994423  1
  O  O30  1  0.62028386  0.77375896  0.01296843  1
  O  O31  1  0.12432412  0.04312392  0.65376480  1
  O  O32  1  0.87567588  0.95687608  0.34623520  1
  O  O33  1  0.12028386  0.22624104  0.48703157  1
  O  O34  1  0.87050452  0.04255553  0.15137235  1
  O  O35  1  0.87529787  0.68225462  0.70432908  1
  O  O36  1  0.19844850  0.58514477  0.86622245  1
  O  O37  1  0.87615977  0.30494231  0.78633536  1
  O  O38  1  0.30155150  0.58514477  0.36622245  1
  O  O39  1  0.12384023  0.69505769  0.21366464  1
  O  O40  1  0.12470213  0.31774538  0.29567092  1
  O  O41  1  0.37567588  0.04312392  0.15376480  1
  O  O42  1  0.69844850  0.41485523  0.63377755  1
  O  O43  1  0.12403592  0.29839591  0.10005577  1
  O  O44  1  0.62432412  0.95687608  0.84623520  1
  O  O45  1  0.37529787  0.31774538  0.79567092  1
  O  O46  1  0.37615977  0.69505769  0.71366464  1
  O  O47  1  0.37971614  0.22624104  0.98703157  1
  O  O48  1  0.62949548  0.04255553  0.65137235  1
  O  O49  1  0.62384023  0.30494231  0.28633536  1
  O  O50  1  0.62470213  0.68225462  0.20432908  1
  O  O51  1  0.80155150  0.41485523  0.13377755  1
  O  O52  1  0.12949548  0.95744447  0.84862765  1
  O  O53  1  0.87116151  0.23173752  0.98572882  1
  O  O54  1  0.94503014  0.58474644  0.36561916  1
  O  O55  1  0.87971614  0.77375896  0.51296843  1
  O  O56  1  0.62883849  0.23173752  0.48572882  1
  O  O57  1  0.12883849  0.76826248  0.01427118  1
  O  O58  1  0.37050452  0.95744447  0.34862765  1
  O  O59  1  0.37116151  0.76826248  0.51427118  1
