# generated using pymatgen
data_Ca3UO6
_symmetry_space_group_name_H-M   'P 1'
_cell_length_a   5.71412900
_cell_length_b   5.95687692
_cell_length_c   8.27568652
_cell_angle_alpha   90.00000000
_cell_angle_beta   90.91493592
_cell_angle_gamma   90.00000000
_symmetry_Int_Tables_number   1
_chemical_formula_structural   Ca3UO6
_chemical_formula_sum   'Ca6 U2 O12'
_cell_volume   281.65490855
_cell_formula_units_Z   2
loop_
 _symmetry_equiv_pos_site_id
 _symmetry_equiv_pos_as_xyz
  1  'x, y, z'
loop_
 _atom_site_type_symbol
 _atom_site_label
 _atom_site_symmetry_multiplicity
 _atom_site_fract_x
 _atom_site_fract_y
 _atom_site_fract_z
 _atom_site_occupancy
  Ca  Ca0  1  0.51684015  0.55471644  0.24017507  1
  Ca  Ca1  1  0.98315985  0.05471644  0.25982493  1
  Ca  Ca2  1  -0.00000000  0.50000000  0.50000000  1
  Ca  Ca3  1  0.50000000  0.00000000  -0.00000000  1
  Ca  Ca4  1  0.01684015  0.94528356  0.74017507  1
  Ca  Ca5  1  0.48315985  0.44528356  0.75982493  1
  U  U6  1  -0.00000000  0.50000000  -0.00000000  1
  U  U7  1  0.50000000  0.00000000  0.50000000  1
  O  O8  1  0.87043722  0.57039344  0.76795539  1
  O  O9  1  0.62956278  0.07039344  0.73204461  1
  O  O10  1  0.12956278  0.42960656  0.23204461  1
  O  O11  1  0.37043722  0.92960656  0.26795539  1
  O  O12  1  0.79529697  0.82108483  0.44546316  1
  O  O13  1  0.70470303  0.32108483  0.05453684  1
  O  O14  1  0.20470303  0.17891517  0.55453684  1
  O  O15  1  0.29529697  0.67891517  0.94546316  1
  O  O16  1  0.17747394  0.21621759  0.91673454  1
  O  O17  1  0.32252606  0.71621759  0.58326546  1
  O  O18  1  0.82252606  0.78378241  0.08326546  1
  O  O19  1  0.67747394  0.28378241  0.41673454  1
