# generated using pymatgen
data_Nb3Se5Cl7
_symmetry_space_group_name_H-M   'P 1'
_cell_length_a   12.76910575
_cell_length_b   8.04351783
_cell_length_c   8.35499374
_cell_angle_alpha   71.20139096
_cell_angle_beta   90.00000000
_cell_angle_gamma   90.00000000
_symmetry_Int_Tables_number   1
_chemical_formula_structural   Nb3Se5Cl7
_chemical_formula_sum   'Nb6 Se10 Cl14'
_cell_volume   812.35401345
_cell_formula_units_Z   2
loop_
 _symmetry_equiv_pos_site_id
 _symmetry_equiv_pos_as_xyz
  1  'x, y, z'
loop_
 _atom_site_type_symbol
 _atom_site_label
 _atom_site_symmetry_multiplicity
 _atom_site_fract_x
 _atom_site_fract_y
 _atom_site_fract_z
 _atom_site_occupancy
  Nb  Nb0  1  0.60939798  0.02522143  0.94095392  1
  Nb  Nb1  1  0.10939798  0.97477857  0.05904608  1
  Nb  Nb2  1  0.39060202  0.97477857  0.05904608  1
  Nb  Nb3  1  0.89060202  0.02522143  0.94095392  1
  Nb  Nb4  1  0.75000000  0.39879184  0.51679107  1
  Nb  Nb5  1  0.25000000  0.60120816  0.48320893  1
  Se  Se6  1  0.52481655  0.17516796  0.14936287  1
  Se  Se7  1  0.02481655  0.82483204  0.85063713  1
  Se  Se8  1  0.47518345  0.82483204  0.85063713  1
  Se  Se9  1  0.97518345  0.17516796  0.14936287  1
  Se  Se10  1  0.46886514  0.27882583  0.87327223  1
  Se  Se11  1  0.96886514  0.72117417  0.12672777  1
  Se  Se12  1  0.53113486  0.72117417  0.12672777  1
  Se  Se13  1  0.03113486  0.27882583  0.87327223  1
  Se  Se14  1  0.75000000  0.42344017  0.23740150  1
  Se  Se15  1  0.25000000  0.57655983  0.76259850  1
  Cl  Cl16  1  0.75000000  0.94518434  0.17939742  1
  Cl  Cl17  1  0.25000000  0.05481566  0.82060258  1
  Cl  Cl18  1  0.75000000  0.83868100  0.85638342  1
  Cl  Cl19  1  0.25000000  0.16131900  0.14361658  1
  Cl  Cl20  1  0.75000000  0.28205462  0.87054909  1
  Cl  Cl21  1  0.25000000  0.71794538  0.12945091  1
  Cl  Cl22  1  0.61650990  0.15309932  0.60459070  1
  Cl  Cl23  1  0.11650990  0.84690068  0.39540930  1
  Cl  Cl24  1  0.38349010  0.84690068  0.39540930  1
  Cl  Cl25  1  0.88349010  0.15309932  0.60459070  1
  Cl  Cl26  1  0.61843227  0.59411783  0.53433842  1
  Cl  Cl27  1  0.11843227  0.40588217  0.46566158  1
  Cl  Cl28  1  0.38156773  0.40588217  0.46566158  1
  Cl  Cl29  1  0.88156773  0.59411783  0.53433842  1
