# generated using pymatgen
data_K2Ag2GeS4
_symmetry_space_group_name_H-M   'P 1'
_cell_length_a   6.42097800
_cell_length_b   7.53179542
_cell_length_c   11.13340135
_cell_angle_alpha   82.93945297
_cell_angle_beta   73.23987301
_cell_angle_gamma   64.76967530
_symmetry_Int_Tables_number   1
_chemical_formula_structural   K2Ag2GeS4
_chemical_formula_sum   'K4 Ag4 Ge2 S8'
_cell_volume   466.37250732
_cell_formula_units_Z   2
loop_
 _symmetry_equiv_pos_site_id
 _symmetry_equiv_pos_as_xyz
  1  'x, y, z'
loop_
 _atom_site_type_symbol
 _atom_site_label
 _atom_site_symmetry_multiplicity
 _atom_site_fract_x
 _atom_site_fract_y
 _atom_site_fract_z
 _atom_site_occupancy
  K  K0  1  0.68709700  0.00000000  0.62580600  1
  K  K1  1  0.31290300  0.00000000  0.37419400  1
  K  K2  1  0.43709700  0.50000000  0.12580600  1
  K  K3  1  0.06290300  0.50000000  0.87419400  1
  Ag  Ag4  1  0.82476600  0.50000000  0.35046800  1
  Ag  Ag5  1  0.07476600  0.00000000  0.85046800  1
  Ag  Ag6  1  0.92523400  0.00000000  0.14953200  1
  Ag  Ag7  1  0.67523400  0.50000000  0.64953200  1
  Ge  Ge8  1  0.50000000  0.00000000  0.00000000  1
  Ge  Ge9  1  0.25000000  0.50000000  0.50000000  1
  S  S10  1  0.09798900  0.29769100  0.62129900  1
  S  S11  1  0.01697800  0.70231000  0.37870200  1
  S  S12  1  0.46928800  0.79769000  0.87870100  1
  S  S13  1  0.60432000  0.29769100  0.37870200  1
  S  S14  1  0.73302200  0.79769000  0.12129800  1
  S  S15  1  0.28071200  0.70231000  0.62129900  1
  S  S16  1  0.14568000  0.20230900  0.12129800  1
  S  S17  1  0.65201100  0.20230900  0.87870100  1
