# generated using pymatgen
data_CsLi2I3
_symmetry_space_group_name_H-M   'P 1'
_cell_length_a   4.59530478
_cell_length_b   4.59530478
_cell_length_c   10.81571048
_cell_angle_alpha   90.00000000
_cell_angle_beta   90.00000000
_cell_angle_gamma   90.00000000
_symmetry_Int_Tables_number   1
_chemical_formula_structural   CsLi2I3
_chemical_formula_sum   'Cs1 Li2 I3'
_cell_volume   228.39347650
_cell_formula_units_Z   1
loop_
 _symmetry_equiv_pos_site_id
 _symmetry_equiv_pos_as_xyz
  1  'x, y, z'
loop_
 _atom_site_type_symbol
 _atom_site_label
 _atom_site_symmetry_multiplicity
 _atom_site_fract_x
 _atom_site_fract_y
 _atom_site_fract_z
 _atom_site_occupancy
  Cs  Cs0  1  0.50000000  0.50000000  0.50000000  1
  Li  Li1  1  0.50000000  0.00000000  0.14330605  1
  Li  Li2  1  0.00000000  0.50000000  0.85669395  1
  I  I3  1  0.00000000  -0.00000000  0.29333846  1
  I  I4  1  0.00000000  0.00000000  0.70666154  1
  I  I5  1  0.50000000  0.50000000  0.00000000  1
