# generated using pymatgen
data_NaCa9Co(PO4)7
_symmetry_space_group_name_H-M   'P 1'
_cell_length_a   13.83801688
_cell_length_b   13.83801688
_cell_length_c   13.83801723
_cell_angle_alpha   44.38285436
_cell_angle_beta   44.38285436
_cell_angle_gamma   44.38285335
_symmetry_Int_Tables_number   1
_chemical_formula_structural   NaCa9Co(PO4)7
_chemical_formula_sum   'Na2 Ca18 Co2 P14 O56'
_cell_volume   1178.41161014
_cell_formula_units_Z   2
loop_
 _symmetry_equiv_pos_site_id
 _symmetry_equiv_pos_as_xyz
  1  'x, y, z'
loop_
 _atom_site_type_symbol
 _atom_site_label
 _atom_site_symmetry_multiplicity
 _atom_site_fract_x
 _atom_site_fract_y
 _atom_site_fract_z
 _atom_site_occupancy
  Na  Na0  1  0.31135800  0.31135800  0.31135800  1
  Na  Na1  1  0.81135800  0.81135800  0.81135800  1
  Ca  Ca2  1  0.42369700  0.43539400  0.83724700  1
  Ca  Ca3  1  0.92369700  0.33724700  0.93539400  1
  Ca  Ca4  1  0.15142000  0.59065600  0.55903100  1
  Ca  Ca5  1  0.33724700  0.93539400  0.92369700  1
  Ca  Ca6  1  0.65142000  0.05903100  0.09065600  1
  Ca  Ca7  1  0.02825100  0.44060900  0.05075900  1
  Ca  Ca8  1  0.43539400  0.83724700  0.42369700  1
  Ca  Ca9  1  0.55075900  0.94060900  0.52825100  1
  Ca  Ca10  1  0.93539400  0.92369700  0.33724700  1
  Ca  Ca11  1  0.52825100  0.55075900  0.94060900  1
  Ca  Ca12  1  0.05903100  0.09065600  0.65142000  1
  Ca  Ca13  1  0.94060900  0.52825100  0.55075900  1
  Ca  Ca14  1  0.59065600  0.55903100  0.15142000  1
  Ca  Ca15  1  0.83724700  0.42369700  0.43539400  1
  Ca  Ca16  1  0.05075900  0.02825100  0.44060900  1
  Ca  Ca17  1  0.55903100  0.15142000  0.59065600  1
  Ca  Ca18  1  0.09065600  0.65142000  0.05903100  1
  Ca  Ca19  1  0.44060900  0.05075900  0.02825100  1
  Co  Co20  1  0.99728600  0.99728600  0.99728600  1
  Co  Co21  1  0.49728600  0.49728600  0.49728600  1
  P  P22  1  0.31556900  0.81162900  0.27406600  1
  P  P23  1  0.27406600  0.31556900  0.81162900  1
  P  P24  1  0.68888400  0.17481200  0.72583300  1
  P  P25  1  0.17481200  0.72583300  0.68888400  1
  P  P26  1  0.23153100  0.23153100  0.23153100  1
  P  P27  1  0.72583300  0.68888400  0.17481200  1
  P  P28  1  0.81556900  0.77406600  0.31162900  1
  P  P29  1  0.77406600  0.31162900  0.81556900  1
  P  P30  1  0.73153100  0.73153100  0.73153100  1
  P  P31  1  0.81162900  0.27406600  0.31556900  1
  P  P32  1  0.31162900  0.81556900  0.77406600  1
  P  P33  1  0.67481200  0.18888400  0.22583300  1
  P  P34  1  0.18888400  0.22583300  0.67481200  1
  P  P35  1  0.22583300  0.67481200  0.18888400  1
  O  O36  1  0.88566900  0.31050300  0.32630700  1
  O  O37  1  0.85274700  0.10094500  0.41083800  1
  O  O38  1  0.36293700  0.15035300  0.61911700  1
  O  O39  1  0.88277000  0.86177000  0.13434500  1
  O  O40  1  0.10813100  0.38786700  0.66212800  1
  O  O41  1  0.38786700  0.66212800  0.10813100  1
  O  O42  1  0.60094500  0.35274700  0.91083800  1
  O  O43  1  0.35115000  0.62693300  0.62036000  1
  O  O44  1  0.41083800  0.85274700  0.10094500  1
  O  O45  1  0.38277000  0.63434500  0.36177000  1
  O  O46  1  0.35274700  0.91083800  0.60094500  1
  O  O47  1  0.38566900  0.82630700  0.81050300  1
  O  O48  1  0.88786700  0.60813100  0.16212800  1
  O  O49  1  0.14755400  0.24371400  0.58248000  1
  O  O50  1  0.66212800  0.10813100  0.38786700  1
  O  O51  1  0.36177000  0.38277000  0.63434500  1
  O  O52  1  0.15035300  0.61911700  0.36293700  1
  O  O53  1  0.88872500  0.73973500  0.60738100  1
  O  O54  1  0.86293700  0.11911700  0.65035300  1
  O  O55  1  0.82630700  0.81050300  0.38566900  1
  O  O56  1  0.58248000  0.14755400  0.24371400  1
  O  O57  1  0.32630700  0.88566900  0.31050300  1
  O  O58  1  0.64578400  0.82734100  0.36901200  1
  O  O59  1  0.32734100  0.14578400  0.86901200  1
  O  O60  1  0.62693300  0.62036000  0.35115000  1
  O  O61  1  0.10094500  0.41083800  0.85274700  1
  O  O62  1  0.12036000  0.12693300  0.85115000  1
  O  O63  1  0.10738100  0.23973500  0.38872500  1
  O  O64  1  0.11911700  0.65035300  0.86293700  1
  O  O65  1  0.38872500  0.10738100  0.23973500  1
  O  O66  1  0.13434500  0.88277000  0.86177000  1
  O  O67  1  0.74371400  0.64755400  0.08248000  1
  O  O68  1  0.91083800  0.60094500  0.35274700  1
  O  O69  1  0.36901200  0.64578400  0.82734100  1
  O  O70  1  0.86901200  0.32734100  0.14578400  1
  O  O71  1  0.19007100  0.19007100  0.19007100  1
  O  O72  1  0.63434500  0.36177000  0.38277000  1
  O  O73  1  0.31050300  0.32630700  0.88566900  1
  O  O74  1  0.12693300  0.85115000  0.12036000  1
  O  O75  1  0.86177000  0.13434500  0.88277000  1
  O  O76  1  0.60738100  0.88872500  0.73973500  1
  O  O77  1  0.23973500  0.38872500  0.10738100  1
  O  O78  1  0.60813100  0.16212800  0.88786700  1
  O  O79  1  0.65035300  0.86293700  0.11911700  1
  O  O80  1  0.14578400  0.86901200  0.32734100  1
  O  O81  1  0.82734100  0.36901200  0.64578400  1
  O  O82  1  0.85115000  0.12036000  0.12693300  1
  O  O83  1  0.81050300  0.38566900  0.82630700  1
  O  O84  1  0.08248000  0.74371400  0.64755400  1
  O  O85  1  0.73973500  0.60738100  0.88872500  1
  O  O86  1  0.24371400  0.58248000  0.14755400  1
  O  O87  1  0.61911700  0.36293700  0.15035300  1
  O  O88  1  0.64755400  0.08248000  0.74371400  1
  O  O89  1  0.16212800  0.88786700  0.60813100  1
  O  O90  1  0.69007100  0.69007100  0.69007100  1
  O  O91  1  0.62036000  0.35115000  0.62693300  1
