# generated using pymatgen
data_ErHO2
_symmetry_space_group_name_H-M   'P 1'
_cell_length_a   3.57666010
_cell_length_b   4.25771714
_cell_length_c   6.01213669
_cell_angle_alpha   112.65759352
_cell_angle_beta   90.00000000
_cell_angle_gamma   90.00000000
_symmetry_Int_Tables_number   1
_chemical_formula_structural   ErHO2
_chemical_formula_sum   'Er2 H2 O4'
_cell_volume   84.48934600
_cell_formula_units_Z   2
loop_
 _symmetry_equiv_pos_site_id
 _symmetry_equiv_pos_as_xyz
  1  'x, y, z'
loop_
 _atom_site_type_symbol
 _atom_site_label
 _atom_site_symmetry_multiplicity
 _atom_site_fract_x
 _atom_site_fract_y
 _atom_site_fract_z
 _atom_site_occupancy
  Er  Er0  1  0.25000000  0.35557455  0.18905662  1
  Er  Er1  1  0.75000000  0.64442545  0.81094338  1
  H  H2  1  0.25000000  0.09731353  0.58250828  1
  H  H3  1  0.75000000  0.90268647  0.41749172  1
  O  O4  1  0.25000000  0.78547631  0.05197711  1
  O  O5  1  0.75000000  0.21452369  0.94802289  1
  O  O6  1  0.25000000  0.31150084  0.56241424  1
  O  O7  1  0.75000000  0.68849916  0.43758576  1
