# generated using pymatgen
data_BaTeF6
_symmetry_space_group_name_H-M   'P 1'
_cell_length_a   10.74036353
_cell_length_b   8.82827185
_cell_length_c   8.77532906
_cell_angle_alpha   75.20090866
_cell_angle_beta   52.62297448
_cell_angle_gamma   52.17624720
_symmetry_Int_Tables_number   1
_chemical_formula_structural   BaTeF6
_chemical_formula_sum   'Ba4 Te4 F24'
_cell_volume   513.16155671
_cell_formula_units_Z   4
loop_
 _symmetry_equiv_pos_site_id
 _symmetry_equiv_pos_as_xyz
  1  'x, y, z'
loop_
 _atom_site_type_symbol
 _atom_site_label
 _atom_site_symmetry_multiplicity
 _atom_site_fract_x
 _atom_site_fract_y
 _atom_site_fract_z
 _atom_site_occupancy
  Ba  Ba0  1  0.21089917  0.02387608  0.63584618  1
  Ba  Ba1  1  0.12935134  0.63588215  0.02380651  1
  Ba  Ba2  1  0.22619912  0.03907696  0.12052251  1
  Ba  Ba3  1  0.61405945  0.12073619  0.03905040  1
  Te  Te4  1  0.72963104  0.48350164  0.55841559  1
  Te  Te5  1  0.69183998  0.02167844  0.52023511  1
  Te  Te6  1  0.22842291  0.55822005  0.48361018  1
  Te  Te7  1  0.76641362  0.52041294  0.02160031  1
  F  F8  1  0.31282636  0.28538786  0.46412762  1
  F  F9  1  0.72091597  0.96274900  0.28894670  1
  F  F10  1  0.93748985  0.47666380  0.74442537  1
  F  F11  1  0.56407655  0.40350977  0.76728937  1
  F  F12  1  0.29730281  0.48656824  0.66625893  1
  F  F13  1  0.77337687  0.31224716  0.40878924  1
  F  F14  1  0.27121040  0.83304531  0.89713151  1
  F  F15  1  0.48269830  0.98533230  0.68592432  1
  F  F16  1  0.26529178  0.76697312  0.40382227  1
  F  F17  1  0.84628322  0.68610427  0.98477300  1
  F  F18  1  0.93727547  0.46431240  0.28543950  1
  F  F19  1  0.99860779  0.89729168  0.83314413  1
  F  F20  1  0.84126076  0.74456056  0.47665201  1
  F  F21  1  0.41699360  0.97882955  0.25127694  1
  F  F22  1  0.50553319  0.40851745  0.31253255  1
  F  F23  1  0.54945534  0.66595416  0.48704542  1
  F  F24  1  0.76324132  0.95252179  0.70037785  1
  F  F25  1  0.58387102  0.70061548  0.95257675  1
  F  F26  1  0.78561393  0.31268582  0.93722533  1
  F  F27  1  0.35276310  0.25146099  0.97889711  1
  F  F28  1  0.96491491  0.93682554  0.31235840  1
  F  F29  1  0.96113597  0.22241218  0.52906164  1
  F  F30  1  0.02760210  0.28900391  0.96241055  1
  F  F31  1  0.28744279  0.52904218  0.22242369  1
