# generated using pymatgen
data_Ag5GeO4
_symmetry_space_group_name_H-M   'P 1'
_cell_length_a   9.89279619
_cell_length_b   6.44040358
_cell_length_c   11.03169848
_cell_angle_alpha   55.97959453
_cell_angle_beta   90.00000000
_cell_angle_gamma   90.00000000
_symmetry_Int_Tables_number   1
_chemical_formula_structural   Ag5GeO4
_chemical_formula_sum   'Ag20 Ge4 O16'
_cell_volume   582.56498053
_cell_formula_units_Z   4
loop_
 _symmetry_equiv_pos_site_id
 _symmetry_equiv_pos_as_xyz
  1  'x, y, z'
loop_
 _atom_site_type_symbol
 _atom_site_label
 _atom_site_symmetry_multiplicity
 _atom_site_fract_x
 _atom_site_fract_y
 _atom_site_fract_z
 _atom_site_occupancy
  Ag  Ag0  1  0.41548258  0.07158963  0.08979481  1
  Ag  Ag1  1  0.91548258  0.92841037  0.41020519  1
  Ag  Ag2  1  0.58451742  0.92841037  0.91020519  1
  Ag  Ag3  1  0.08451742  0.07158963  0.58979481  1
  Ag  Ag4  1  0.35587842  0.60003964  0.11823780  1
  Ag  Ag5  1  0.85587842  0.39996036  0.38176220  1
  Ag  Ag6  1  0.64412158  0.39996036  0.88176220  1
  Ag  Ag7  1  0.14412158  0.60003964  0.61823780  1
  Ag  Ag8  1  0.40620451  0.32370968  0.69760214  1
  Ag  Ag9  1  0.90620451  0.67629032  0.80239786  1
  Ag  Ag10  1  0.59379549  0.67629032  0.30239786  1
  Ag  Ag11  1  0.09379549  0.32370968  0.19760214  1
  Ag  Ag12  1  0.37740311  0.79933352  0.42501681  1
  Ag  Ag13  1  0.87740311  0.20066648  0.07498319  1
  Ag  Ag14  1  0.62259689  0.20066648  0.57498319  1
  Ag  Ag15  1  0.12259689  0.79933352  0.92501681  1
  Ag  Ag16  1  0.37541194  0.34684772  0.44175011  1
  Ag  Ag17  1  0.87541194  0.65315228  0.05824989  1
  Ag  Ag18  1  0.62458806  0.65315228  0.55824989  1
  Ag  Ag19  1  0.12458806  0.34684772  0.94175011  1
  Ge  Ge20  1  0.38703780  0.75316046  0.75862435  1
  Ge  Ge21  1  0.88703780  0.24683954  0.74137565  1
  Ge  Ge22  1  0.61296220  0.24683954  0.24137565  1
  Ge  Ge23  1  0.11296220  0.75316046  0.25862435  1
  O  O24  1  0.43693755  0.21935397  0.27775139  1
  O  O25  1  0.93693755  0.78064603  0.22224861  1
  O  O26  1  0.56306245  0.78064603  0.72224861  1
  O  O27  1  0.06306245  0.21935397  0.77775139  1
  O  O28  1  0.29067581  0.91918680  0.59528805  1
  O  O29  1  0.79067581  0.08081320  0.90471195  1
  O  O30  1  0.70932419  0.08081320  0.40471195  1
  O  O31  1  0.20932419  0.91918680  0.09528805  1
  O  O32  1  0.34465294  0.43224092  0.85766348  1
  O  O33  1  0.14009723  0.88578090  0.36129130  1
  O  O34  1  0.84465294  0.56775908  0.64233652  1
  O  O35  1  0.15534706  0.43224092  0.35766348  1
  O  O36  1  0.35990277  0.88578090  0.86129130  1
  O  O37  1  0.85990277  0.11421910  0.63870870  1
  O  O38  1  0.64009723  0.11421910  0.13870870  1
  O  O39  1  0.65534706  0.56775908  0.14233652  1
