# generated using pymatgen
data_KAlSiO4
_symmetry_space_group_name_H-M   'P 1'
_cell_length_a   8.51921653
_cell_length_b   9.02431912
_cell_length_c   15.63549055
_cell_angle_alpha   90.00000000
_cell_angle_beta   89.75099134
_cell_angle_gamma   90.00000000
_symmetry_Int_Tables_number   1
_chemical_formula_structural   KAlSiO4
_chemical_formula_sum   'K12 Al12 Si12 O48'
_cell_volume   1202.04717304
_cell_formula_units_Z   12
loop_
 _symmetry_equiv_pos_site_id
 _symmetry_equiv_pos_as_xyz
  1  'x, y, z'
loop_
 _atom_site_type_symbol
 _atom_site_label
 _atom_site_symmetry_multiplicity
 _atom_site_fract_x
 _atom_site_fract_y
 _atom_site_fract_z
 _atom_site_occupancy
  K  K0  1  0.24802699  0.99362857  0.94083586  1
  K  K1  1  0.74843138  0.00544784  0.54768040  1
  K  K2  1  0.74816265  0.98784406  0.89011198  1
  K  K3  1  0.75019699  0.97115556  0.29460755  1
  K  K4  1  0.24980301  0.47115556  0.70539245  1
  K  K5  1  0.24814216  0.01215954  0.60434248  1
  K  K6  1  0.25156862  0.50544784  0.45231960  1
  K  K7  1  0.74807255  0.52922012  0.79125106  1
  K  K8  1  0.75185784  0.51216054  0.39565752  1
  K  K9  1  0.75197301  0.49362857  0.05916414  1
  K  K10  1  0.25192745  0.02922012  0.20874894  1
  K  K11  1  0.25183735  0.48784406  0.10988802  1
  Al  Al12  1  0.56183714  0.34439456  0.56204731  1
  Al  Al13  1  0.43718533  0.33387606  0.88479758  1
  Al  Al14  1  0.94105779  0.16327807  0.05366835  1
  Al  Al15  1  0.56281467  0.83387606  0.11520242  1
  Al  Al16  1  0.06323363  0.65591449  0.27742923  1
  Al  Al17  1  0.05894221  0.66327807  0.94633165  1
  Al  Al18  1  0.43816286  0.84439456  0.43795269  1
  Al  Al19  1  0.43547795  0.82274701  0.77052550  1
  Al  Al20  1  0.93428612  0.67623869  0.60100235  1
  Al  Al21  1  0.06571388  0.17623869  0.39899765  1
  Al  Al22  1  0.93676637  0.15591449  0.72257077  1
  Al  Al23  1  0.56452205  0.32274701  0.22947450  1
  Si  Si24  1  0.05722608  0.82196538  0.77088143  1
  Si  Si25  1  0.44315646  0.17684085  0.39972967  1
  Si  Si26  1  0.05342268  0.33249841  0.88491721  1
  Si  Si27  1  0.55118602  0.16559092  0.05355717  1
  Si  Si28  1  0.05553614  0.84479008  0.43744054  1
  Si  Si29  1  0.94657732  0.83249841  0.11508279  1
  Si  Si30  1  0.94446386  0.34479008  0.56255946  1
  Si  Si31  1  0.94277392  0.32196538  0.22911857  1
  Si  Si32  1  0.55543124  0.15492945  0.72297448  1
  Si  Si33  1  0.44456876  0.65492945  0.27702552  1
  Si  Si34  1  0.44881398  0.66559092  0.94644283  1
  Si  Si35  1  0.55684354  0.67684085  0.60027033  1
  O  O36  1  0.23932511  0.77503749  0.75840438  1
  O  O37  1  0.03744598  0.99619851  0.75045032  1
  O  O38  1  0.97472801  0.70325016  0.04507977  1
  O  O39  1  0.47494173  0.51672440  0.58094876  1
  O  O40  1  0.73918158  0.16549823  0.03869021  1
  O  O41  1  0.53208855  0.70149170  0.03674814  1
  O  O42  1  0.26131937  0.17755705  0.42923807  1
  O  O43  1  0.02514533  0.50411705  0.58360398  1
  O  O44  1  0.53127855  0.30460770  0.45437998  1
  O  O45  1  0.26081842  0.66549823  0.96130979  1
  O  O46  1  0.50279545  0.29020290  0.12413266  1
  O  O47  1  0.53511301  0.29030383  0.79007984  1
  O  O48  1  0.23837733  0.34574750  0.86330875  1
  O  O49  1  0.02353843  0.81075090  0.53767221  1
  O  O50  1  0.00282335  0.79426770  0.86990397  1
  O  O51  1  0.26113511  0.60749026  0.28383089  1
  O  O52  1  0.46872145  0.80460770  0.54562002  1
  O  O53  1  0.99717665  0.29426770  0.13009603  1
  O  O54  1  0.49720455  0.79020290  0.87586734  1
  O  O55  1  0.01514373  0.21544204  0.62387618  1
  O  O56  1  0.24037474  0.85336409  0.41977545  1
  O  O57  1  0.46791145  0.20149170  0.96325186  1
  O  O58  1  0.48848772  0.20684727  0.62987864  1
  O  O59  1  0.03998236  0.79622497  0.20261395  1
  O  O60  1  0.73868063  0.67755705  0.57076193  1
  O  O61  1  0.96255402  0.49619851  0.24954968  1
  O  O62  1  0.75962526  0.35336409  0.58022455  1
  O  O63  1  0.46488699  0.79030383  0.20992016  1
  O  O64  1  0.97485467  0.00411705  0.41639602  1
  O  O65  1  0.51302471  0.50457931  0.91669947  1
  O  O66  1  0.52505827  0.01672440  0.41905124  1
  O  O67  1  0.04750367  0.21857976  0.29109774  1
  O  O68  1  0.54390952  0.51147959  0.24680715  1
  O  O69  1  0.76162267  0.84574750  0.13669125  1
  O  O70  1  0.02527199  0.20325016  0.95492023  1
  O  O71  1  0.98528187  0.48909257  0.92059097  1
  O  O72  1  0.45852901  0.20942636  0.29831126  1
  O  O73  1  0.54147099  0.70942636  0.70168874  1
  O  O74  1  0.76067489  0.27503749  0.24159562  1
  O  O75  1  0.95249633  0.71857976  0.70890226  1
  O  O76  1  0.51151228  0.70684727  0.37012136  1
  O  O77  1  0.98485627  0.71544204  0.37612382  1
  O  O78  1  0.73886589  0.10749026  0.71616911  1
  O  O79  1  0.01471813  0.98909257  0.07940903  1
  O  O80  1  0.45609048  0.01147959  0.75319285  1
  O  O81  1  0.96001764  0.29622497  0.79738605  1
  O  O82  1  0.97646157  0.31075090  0.46232779  1
  O  O83  1  0.48697529  0.00457931  0.08330053  1
