# generated using pymatgen
data_K2U3(IO5)4
_symmetry_space_group_name_H-M   'P 1'
_cell_length_a   7.02444324
_cell_length_b   7.85482415
_cell_length_c   9.00971674
_cell_angle_alpha   92.71571987
_cell_angle_beta   105.32173134
_cell_angle_gamma   91.42779797
_symmetry_Int_Tables_number   1
_chemical_formula_structural   K2U3(IO5)4
_chemical_formula_sum   'K2 U3 I4 O20'
_cell_volume   478.54888676
_cell_formula_units_Z   1
loop_
 _symmetry_equiv_pos_site_id
 _symmetry_equiv_pos_as_xyz
  1  'x, y, z'
loop_
 _atom_site_type_symbol
 _atom_site_label
 _atom_site_symmetry_multiplicity
 _atom_site_fract_x
 _atom_site_fract_y
 _atom_site_fract_z
 _atom_site_occupancy
  K  K0  1  0.74970787  0.39841560  0.16078533  1
  K  K1  1  0.25029213  0.60158440  0.83921467  1
  U  U2  1  0.54978009  0.91520295  0.19382043  1
  U  U3  1  0.45021991  0.08479705  0.80617957  1
  U  U4  1  0.00000000  -0.00000000  -0.00000000  1
  I  I5  1  0.29298791  0.34884967  0.43305011  1
  I  I6  1  0.70701209  0.65115033  0.56694989  1
  I  I7  1  0.87630798  0.20375731  0.61894262  1
  I  I8  1  0.12369202  0.79624269  0.38105738  1
  O  O9  1  0.30886156  0.98578729  0.98542701  1
  O  O10  1  0.69113844  0.01421271  0.01457299  1
  O  O11  1  0.89212394  0.89304129  0.28993958  1
  O  O12  1  0.65198570  0.47029981  0.42902515  1
  O  O13  1  0.95113963  0.78286934  0.91682677  1
  O  O14  1  0.34801430  0.52970019  0.57097485  1
  O  O15  1  0.57250635  0.13282537  0.27751196  1
  O  O16  1  0.08722212  0.59139142  0.28049171  1
  O  O17  1  0.77314833  0.09567860  0.76310171  1
  O  O18  1  0.10787606  0.10695871  0.71006042  1
  O  O19  1  0.42698051  0.18943858  0.55725552  1
  O  O20  1  0.52922150  0.69549731  0.11407401  1
  O  O21  1  0.57301949  0.81056142  0.44274448  1
  O  O22  1  0.04366446  0.28442591  0.44067008  1
  O  O23  1  0.47077850  0.30450269  0.88592599  1
  O  O24  1  0.42749365  0.86717463  0.72248804  1
  O  O25  1  0.04886037  0.21713066  0.08317323  1
  O  O26  1  0.22685167  0.90432140  0.23689829  1
  O  O27  1  0.95633554  0.71557409  0.55932992  1
  O  O28  1  0.91277788  0.40860858  0.71950829  1
