# generated using pymatgen
data_B3Pb6ClO10
_symmetry_space_group_name_H-M   'P 1'
_cell_length_a   7.05792529
_cell_length_b   11.03173519
_cell_length_c   17.29943384
_cell_angle_alpha   90.00000000
_cell_angle_beta   90.00000000
_cell_angle_gamma   90.00000000
_symmetry_Int_Tables_number   1
_chemical_formula_structural   B3Pb6ClO10
_chemical_formula_sum   'B12 Pb24 Cl4 O40'
_cell_volume   1346.95403439
_cell_formula_units_Z   4
loop_
 _symmetry_equiv_pos_site_id
 _symmetry_equiv_pos_as_xyz
  1  'x, y, z'
loop_
 _atom_site_type_symbol
 _atom_site_label
 _atom_site_symmetry_multiplicity
 _atom_site_fract_x
 _atom_site_fract_y
 _atom_site_fract_z
 _atom_site_occupancy
  B  B0  1  0.27901843  0.49729185  0.99666770  1
  B  B1  1  0.72098157  0.50270815  0.00333230  1
  B  B2  1  0.72098157  0.49729185  0.49666770  1
  B  B3  1  0.29647173  0.25000000  0.72512568  1
  B  B4  1  0.72098157  0.99729185  0.00333230  1
  B  B5  1  0.27901843  0.99729185  0.50333230  1
  B  B6  1  0.72098157  0.00270815  0.49666770  1
  B  B7  1  0.70352827  0.75000000  0.27487432  1
  B  B8  1  0.29647173  0.75000000  0.77487432  1
  B  B9  1  0.27901843  0.50270815  0.50333230  1
  B  B10  1  0.70352827  0.25000000  0.22512568  1
  B  B11  1  0.27901843  0.00270815  0.99666770  1
  Pb  Pb12  1  0.97509106  0.92036629  0.16053240  1
  Pb  Pb13  1  0.02490894  0.92036629  0.66053240  1
  Pb  Pb14  1  0.97509106  0.07963371  0.33946760  1
  Pb  Pb15  1  0.52977880  0.56412542  0.84422716  1
  Pb  Pb16  1  0.97509106  0.57963371  0.16053240  1
  Pb  Pb17  1  0.47022120  0.06412542  0.15577284  1
  Pb  Pb18  1  0.92661188  0.25000000  0.02806431  1
  Pb  Pb19  1  0.58703544  0.25000000  0.43680482  1
  Pb  Pb20  1  0.07338812  0.25000000  0.52806431  1
  Pb  Pb21  1  0.58703544  0.75000000  0.06319518  1
  Pb  Pb22  1  0.02490894  0.42036629  0.83946760  1
  Pb  Pb23  1  0.92661188  0.75000000  0.47193569  1
  Pb  Pb24  1  0.52977880  0.43587458  0.65577284  1
  Pb  Pb25  1  0.41296456  0.75000000  0.56319518  1
  Pb  Pb26  1  0.97509106  0.42036629  0.33946760  1
  Pb  Pb27  1  0.47022120  0.43587458  0.15577284  1
  Pb  Pb28  1  0.52977880  0.06412542  0.65577284  1
  Pb  Pb29  1  0.41296456  0.25000000  0.93680482  1
  Pb  Pb30  1  0.02490894  0.57963371  0.66053240  1
  Pb  Pb31  1  0.07338812  0.75000000  0.97193569  1
  Pb  Pb32  1  0.47022120  0.56412542  0.34422716  1
  Pb  Pb33  1  0.47022120  0.93587458  0.34422716  1
  Pb  Pb34  1  0.52977880  0.93587458  0.84422716  1
  Pb  Pb35  1  0.02490894  0.07963371  0.83946760  1
  Cl  Cl36  1  0.79903753  0.75000000  0.76223844  1
  Cl  Cl37  1  0.20096247  0.25000000  0.23776156  1
  Cl  Cl38  1  0.20096247  0.75000000  0.26223844  1
  Cl  Cl39  1  0.79903753  0.25000000  0.73776156  1
  O  O40  1  0.66447986  0.39198616  0.53392097  1
  O  O41  1  0.91355067  0.75000000  0.09083298  1
  O  O42  1  0.27455967  0.50548044  0.58375855  1
  O  O43  1  0.08644933  0.25000000  0.90916702  1
  O  O44  1  0.26576264  0.36115426  0.75734818  1
  O  O45  1  0.26576264  0.13884574  0.75734818  1
  O  O46  1  0.66447986  0.89198616  0.96607903  1
  O  O47  1  0.77008955  0.90121572  0.53732054  1
  O  O48  1  0.27455967  0.00548044  0.91624145  1
  O  O49  1  0.61259411  0.25000000  0.15138484  1
  O  O50  1  0.26576264  0.86115426  0.74265182  1
  O  O51  1  0.38740589  0.25000000  0.65138484  1
  O  O52  1  0.22991045  0.09878428  0.46267946  1
  O  O53  1  0.33552014  0.39198616  0.03392097  1
  O  O54  1  0.22991045  0.90121572  0.03732054  1
  O  O55  1  0.22991045  0.40121572  0.46267946  1
  O  O56  1  0.27455967  0.49451956  0.91624145  1
  O  O57  1  0.66447986  0.60801384  0.96607903  1
  O  O58  1  0.27455967  0.99451956  0.58375855  1
  O  O59  1  0.08644933  0.75000000  0.59083298  1
  O  O60  1  0.73423736  0.13884574  0.25734818  1
  O  O61  1  0.77008955  0.59878428  0.53732054  1
  O  O62  1  0.77008955  0.40121572  0.96267946  1
  O  O63  1  0.38740589  0.75000000  0.84861516  1
  O  O64  1  0.33552014  0.89198616  0.46607903  1
  O  O65  1  0.77008955  0.09878428  0.96267946  1
  O  O66  1  0.72544033  0.99451956  0.08375855  1
  O  O67  1  0.73423736  0.86115426  0.24265182  1
  O  O68  1  0.72544033  0.00548044  0.41624145  1
  O  O69  1  0.91355067  0.25000000  0.40916702  1
  O  O70  1  0.72544033  0.49451956  0.41624145  1
  O  O71  1  0.61259411  0.75000000  0.34861516  1
  O  O72  1  0.72544033  0.50548044  0.08375855  1
  O  O73  1  0.33552014  0.60801384  0.46607903  1
  O  O74  1  0.33552014  0.10801384  0.03392097  1
  O  O75  1  0.73423736  0.63884574  0.24265182  1
  O  O76  1  0.26576264  0.63884574  0.74265182  1
  O  O77  1  0.73423736  0.36115426  0.25734818  1
  O  O78  1  0.22991045  0.59878428  0.03732054  1
  O  O79  1  0.66447986  0.10801384  0.53392097  1
