# generated using pymatgen
data_K2Cu(CO3)2
_symmetry_space_group_name_H-M   'P 1'
_cell_length_a   10.53962019
_cell_length_b   9.38737875
_cell_length_c   6.43402275
_cell_angle_alpha   81.22127543
_cell_angle_beta   61.67145943
_cell_angle_gamma   37.10726514
_symmetry_Int_Tables_number   1
_chemical_formula_structural   K2Cu(CO3)2
_chemical_formula_sum   'K4 Cu2 C4 O12'
_cell_volume   305.97343471
_cell_formula_units_Z   2
loop_
 _symmetry_equiv_pos_site_id
 _symmetry_equiv_pos_as_xyz
  1  'x, y, z'
loop_
 _atom_site_type_symbol
 _atom_site_label
 _atom_site_symmetry_multiplicity
 _atom_site_fract_x
 _atom_site_fract_y
 _atom_site_fract_z
 _atom_site_occupancy
  K  K0  1  0.57537432  0.02322782  0.58468319  1
  K  K1  1  0.81671467  0.58468319  0.02322782  1
  K  K2  1  0.66531681  0.43328533  0.67462568  1
  K  K3  1  0.22677218  0.67462568  0.43328533  1
  Cu  Cu4  1  0.00028081  0.99971919  0.99971919  1
  Cu  Cu5  1  0.25028081  0.24971919  0.24971919  1
  C  C6  1  0.16009022  0.58661868  0.00305036  1
  C  C7  1  0.25024074  0.00305036  0.58661868  1
  C  C8  1  0.24694964  0.99975926  0.08990978  1
  C  C9  1  0.66338132  0.08990978  0.99975926  1
  O  O10  1  0.99633000  0.81284230  0.16688367  1
  O  O11  1  0.02394304  0.16688367  0.81284230  1
  O  O12  1  0.08311633  0.22605696  0.25367000  1
  O  O13  1  0.43715770  0.25367000  0.22605696  1
  O  O14  1  0.11109941  0.48971777  0.08868870  1
  O  O15  1  0.31049312  0.08868870  0.48971777  1
  O  O16  1  0.16131130  0.93950688  0.13890059  1
  O  O17  1  0.76028223  0.13890059  0.93950688  1
  O  O18  1  0.34981728  0.47220002  0.77324732  1
  O  O19  1  0.40473538  0.77324732  0.47220002  1
  O  O20  1  0.47675268  0.84526462  0.90018272  1
  O  O21  1  0.77779998  0.90018272  0.84526462  1
