# generated using pymatgen
data_K4Mn3F12
_symmetry_space_group_name_H-M   'P 1'
_cell_length_a   10.02138318
_cell_length_b   10.02139844
_cell_length_c   10.02126368
_cell_angle_alpha   131.00338914
_cell_angle_beta   131.00328504
_cell_angle_gamma   71.80688665
_symmetry_Int_Tables_number   1
_chemical_formula_structural   K4Mn3F12
_chemical_formula_sum   'K8 Mn6 F24'
_cell_volume   560.69326570
_cell_formula_units_Z   2
loop_
 _symmetry_equiv_pos_site_id
 _symmetry_equiv_pos_as_xyz
  1  'x, y, z'
loop_
 _atom_site_type_symbol
 _atom_site_label
 _atom_site_symmetry_multiplicity
 _atom_site_fract_x
 _atom_site_fract_y
 _atom_site_fract_z
 _atom_site_occupancy
  K  K0  1  0.87502481  0.40253969  0.02751642  1
  K  K1  1  0.15247806  0.62498605  0.02751460  1
  K  K2  1  0.59748184  0.12497265  0.97250570  1
  K  K3  1  0.37502755  0.84750186  0.97247581  1
  K  K4  1  0.87502398  0.84751031  0.47248283  1
  K  K5  1  0.59747105  0.62497868  0.47250737  1
  K  K6  1  0.37501835  0.40251720  0.52748576  1
  K  K7  1  0.15247193  0.12497214  0.52749304  1
  Mn  Mn8  1  0.75000039  0.25000010  0.50000398  1
  Mn  Mn9  1  0.00000061  0.00000333  0.00000016  1
  Mn  Mn10  1  0.24427308  0.24426891  -0.00000136  1
  Mn  Mn11  1  0.99423144  0.49423444  0.50000181  1
  Mn  Mn12  1  0.50576857  0.00578566  0.50001498  1
  Mn  Mn13  1  0.75572200  0.75572675  -0.00000892  1
  F  F14  1  0.64061307  0.64061342  0.00000623  1
  F  F15  1  0.39066193  0.89066193  0.50000535  1
  F  F16  1  0.10933619  0.60933677  0.49999248  1
  F  F17  1  0.35938692  0.35938719  -0.00000435  1
  F  F18  1  0.87390779  0.87390827  -0.00000247  1
  F  F19  1  0.62400978  0.12400793  0.49999592  1
  F  F20  1  0.87599061  0.37599087  0.50000286  1
  F  F21  1  0.12609300  0.12609434  0.00000387  1
  F  F22  1  0.53519583  0.75714700  0.77804756  1
  F  F23  1  0.24285791  0.02089809  0.77804613  1
  F  F24  1  0.24285238  0.46481477  0.22196168  1
  F  F25  1  0.21471052  0.49282391  0.72188998  1
  F  F26  1  0.77093056  0.49283057  0.27810842  1
  F  F27  1  0.50717417  0.22905998  0.72188486  1
  F  F28  1  0.99176986  0.24497455  0.74679506  1
  F  F29  1  0.99471074  0.74793959  0.75322981  1
  F  F30  1  0.99470867  0.24148148  0.24677335  1
  F  F31  1  0.75851981  0.00529402  0.75323075  1
  F  F32  1  0.25206063  0.00529309  0.24677218  1
  F  F33  1  0.75502096  0.50181793  0.74679412  1
  F  F34  1  0.75502233  0.00822702  0.25320399  1
  F  F35  1  0.49818449  0.24497876  0.25320838  1
  F  F36  1  0.97911061  0.75714364  0.22196246  1
  F  F37  1  0.50717757  0.78527610  0.27809920  1
