# generated using pymatgen
data_AuSCl7
_symmetry_space_group_name_H-M   'P 1'
_cell_length_a   10.33825300
_cell_length_b   8.74561107
_cell_length_c   11.77891789
_cell_angle_alpha   73.05750973
_cell_angle_beta   90.00000000
_cell_angle_gamma   90.00000000
_symmetry_Int_Tables_number   1
_chemical_formula_structural   AuSCl7
_chemical_formula_sum   'Au4 S4 Cl28'
_cell_volume   1018.76040950
_cell_formula_units_Z   4
loop_
 _symmetry_equiv_pos_site_id
 _symmetry_equiv_pos_as_xyz
  1  'x, y, z'
loop_
 _atom_site_type_symbol
 _atom_site_label
 _atom_site_symmetry_multiplicity
 _atom_site_fract_x
 _atom_site_fract_y
 _atom_site_fract_z
 _atom_site_occupancy
  Au  Au0  1  0.09728324  0.78530266  0.03059979  1
  Au  Au1  1  0.40271676  0.78530266  0.53059979  1
  Au  Au2  1  0.59728324  0.21469734  0.46940021  1
  Au  Au3  1  0.90271676  0.21469734  0.96940021  1
  S  S4  1  0.29625513  0.23518972  0.01471436  1
  S  S5  1  0.79625513  0.76481028  0.48528564  1
  S  S6  1  0.20374487  0.23518972  0.51471436  1
  S  S7  1  0.70374487  0.76481028  0.98528564  1
  Cl  Cl8  1  0.28360935  0.42968799  0.07354335  1
  Cl  Cl9  1  0.71639065  0.57031201  0.92645665  1
  Cl  Cl10  1  0.23411205  0.69465602  0.18920077  1
  Cl  Cl11  1  0.23964465  0.94237406  0.42462623  1
  Cl  Cl12  1  0.53823041  0.87405204  0.36829085  1
  Cl  Cl13  1  0.43771804  0.37787292  0.36213612  1
  Cl  Cl14  1  0.07176546  0.30595536  0.38507894  1
  Cl  Cl15  1  0.78360935  0.57031201  0.42645665  1
  Cl  Cl16  1  0.03823041  0.12594796  0.13170915  1
  Cl  Cl17  1  0.89708687  0.90876914  0.35156369  1
  Cl  Cl18  1  0.21639065  0.42968799  0.57354335  1
  Cl  Cl19  1  0.39708687  0.09123086  0.14843631  1
  Cl  Cl20  1  0.56228196  0.62212708  0.63786388  1
  Cl  Cl21  1  0.76035535  0.05762594  0.57537377  1
  Cl  Cl22  1  0.46176959  0.12594796  0.63170915  1
  Cl  Cl23  1  0.60291313  0.90876914  0.85156369  1
  Cl  Cl24  1  0.93771804  0.62212708  0.13786388  1
  Cl  Cl25  1  0.73964465  0.05762594  0.07537377  1
  Cl  Cl26  1  0.73411205  0.30534398  0.31079923  1
  Cl  Cl27  1  0.26035535  0.94237406  0.92462623  1
  Cl  Cl28  1  0.57176546  0.69404464  0.11492106  1
  Cl  Cl29  1  0.06228196  0.37787292  0.86213612  1
  Cl  Cl30  1  0.42823454  0.30595536  0.88507894  1
  Cl  Cl31  1  0.26588795  0.69465602  0.68920077  1
  Cl  Cl32  1  0.96176959  0.87405204  0.86829085  1
  Cl  Cl33  1  0.10291313  0.09123086  0.64843631  1
  Cl  Cl34  1  0.76588795  0.30534398  0.81079923  1
  Cl  Cl35  1  0.92823454  0.69404464  0.61492106  1
