# generated using pymatgen
data_AuN5O14
_symmetry_space_group_name_H-M   'P 1'
_cell_length_a   8.05440741
_cell_length_b   7.66963986
_cell_length_c   9.28932596
_cell_angle_alpha   61.44337875
_cell_angle_beta   90.00000000
_cell_angle_gamma   90.00000000
_symmetry_Int_Tables_number   1
_chemical_formula_structural   AuN5O14
_chemical_formula_sum   'Au2 N10 O28'
_cell_volume   504.03183900
_cell_formula_units_Z   2
loop_
 _symmetry_equiv_pos_site_id
 _symmetry_equiv_pos_as_xyz
  1  'x, y, z'
loop_
 _atom_site_type_symbol
 _atom_site_label
 _atom_site_symmetry_multiplicity
 _atom_site_fract_x
 _atom_site_fract_y
 _atom_site_fract_z
 _atom_site_occupancy
  Au  Au0  1  0.50000000  0.00000000  0.50000000  1
  Au  Au1  1  -0.00000000  0.00000000  -0.00000000  1
  N  N2  1  0.92885562  0.13804563  0.22911209  1
  N  N3  1  0.25762727  0.30879648  0.35859664  1
  N  N4  1  0.75762727  0.69120352  0.14140336  1
  N  N5  1  0.57114438  0.13804563  0.72911209  1
  N  N6  1  0.07114438  0.86195437  0.77088791  1
  N  N7  1  0.74237273  0.69120352  0.64140336  1
  N  N8  1  0.42885562  0.86195437  0.27088791  1
  N  N9  1  0.24237273  0.30879648  0.85859664  1
  N  N10  1  -0.00000000  0.50000000  0.50000000  1
  N  N11  1  0.50000000  0.50000000  -0.00000000  1
  O  O12  1  0.95684354  0.97622692  0.70018648  1
  O  O13  1  0.61287879  0.17451623  0.57584880  1
  O  O14  1  0.34449532  0.77050634  0.21967533  1
  O  O15  1  0.76710295  0.75123067  0.49473837  1
  O  O16  1  0.90174325  0.38786150  0.51259021  1
  O  O17  1  0.11287879  0.82548377  0.92415120  1
  O  O18  1  0.88823325  0.76461486  0.18653113  1
  O  O19  1  0.26710295  0.24876933  0.00526163  1
  O  O20  1  0.38712121  0.82548377  0.42415120  1
  O  O21  1  0.04315646  0.02377308  0.29981352  1
  O  O22  1  0.82443423  0.56708642  0.75482769  1
  O  O23  1  0.59825675  0.38786150  0.01259021  1
  O  O24  1  0.38823325  0.23538514  0.31346887  1
  O  O25  1  0.73289705  0.75123067  0.99473837  1
  O  O26  1  0.65550468  0.22949366  0.78032467  1
  O  O27  1  0.67556577  0.56708642  0.25482769  1
  O  O28  1  0.84449532  0.22949366  0.28032467  1
  O  O29  1  0.17556577  0.43291358  0.24517231  1
  O  O30  1  0.15550468  0.77050634  0.71967533  1
  O  O31  1  0.61176675  0.76461486  0.68653113  1
  O  O32  1  0.45684354  0.02377308  0.79981352  1
  O  O33  1  0.09825675  0.61213850  0.48740979  1
  O  O34  1  0.54315646  0.97622692  0.20018648  1
  O  O35  1  0.32443423  0.43291358  0.74517231  1
  O  O36  1  0.11176675  0.23538514  0.81346887  1
  O  O37  1  0.23289705  0.24876933  0.50526163  1
  O  O38  1  0.88712121  0.17451623  0.07584880  1
  O  O39  1  0.40174325  0.61213850  0.98740979  1
