# generated using pymatgen
data_NiP2(H4O5)2
_symmetry_space_group_name_H-M   'P 1'
_cell_length_a   9.80554985
_cell_length_b   5.20307860
_cell_length_c   8.54986203
_cell_angle_alpha   55.74515968
_cell_angle_beta   90.00000000
_cell_angle_gamma   90.00000000
_symmetry_Int_Tables_number   1
_chemical_formula_structural   NiP2(H4O5)2
_chemical_formula_sum   'Ni2 P4 H16 O20'
_cell_volume   360.54250937
_cell_formula_units_Z   2
loop_
 _symmetry_equiv_pos_site_id
 _symmetry_equiv_pos_as_xyz
  1  'x, y, z'
loop_
 _atom_site_type_symbol
 _atom_site_label
 _atom_site_symmetry_multiplicity
 _atom_site_fract_x
 _atom_site_fract_y
 _atom_site_fract_z
 _atom_site_occupancy
  Ni  Ni0  1  0.50000000  0.00000000  0.50000000  1
  Ni  Ni1  1  -0.00000000  0.00000000  -0.00000000  1
  P  P2  1  0.71607473  0.09422927  0.16195602  1
  P  P3  1  0.21607473  0.90577073  0.33804398  1
  P  P4  1  0.28392527  0.90577073  0.83804398  1
  P  P5  1  0.78392527  0.09422927  0.66195602  1
  H  H6  1  0.57466857  0.41071680  0.66109183  1
  H  H7  1  0.07466857  0.58928320  0.83890817  1
  H  H8  1  0.42533143  0.58928320  0.33890817  1
  H  H9  1  0.92533143  0.41071680  0.16109183  1
  H  H10  1  0.44867825  0.42458041  0.76660489  1
  H  H11  1  0.94867825  0.57541959  0.73339511  1
  H  H12  1  0.55132175  0.57541959  0.23339511  1
  H  H13  1  0.05132175  0.42458041  0.26660489  1
  H  H14  1  0.60882033  0.45773564  0.89690786  1
  H  H15  1  0.10882033  0.54226436  0.60309214  1
  H  H16  1  0.39117967  0.54226436  0.10309214  1
  H  H17  1  0.89117967  0.45773564  0.39690786  1
  H  H18  1  0.72390352  0.87329594  0.01085384  1
  H  H19  1  0.22390352  0.12670406  0.48914616  1
  H  H20  1  0.27609648  0.12670406  0.98914616  1
  H  H21  1  0.77609648  0.87329594  0.51085384  1
  O  O22  1  0.66789331  0.98507396  0.35807051  1
  O  O23  1  0.16789331  0.01492604  0.14192949  1
  O  O24  1  0.33210669  0.01492604  0.64192949  1
  O  O25  1  0.83210669  0.98507396  0.85807051  1
  O  O26  1  0.86943299  0.13219985  0.13751317  1
  O  O27  1  0.36943299  0.86780015  0.36248683  1
  O  O28  1  0.13056701  0.86780015  0.86248683  1
  O  O29  1  0.63056701  0.13219985  0.63751317  1
  O  O30  1  0.64248360  0.40805689  0.02156955  1
  O  O31  1  0.14248360  0.59194311  0.47843045  1
  O  O32  1  0.35751640  0.59194311  0.97843045  1
  O  O33  1  0.85751640  0.40805689  0.52156955  1
  O  O34  1  0.66874363  0.85131807  0.11884234  1
  O  O35  1  0.16874363  0.14868193  0.38115766  1
  O  O36  1  0.33125637  0.14868193  0.88115766  1
  O  O37  1  0.83125637  0.85131807  0.61884234  1
  O  O38  1  0.53450192  0.53674937  0.70480632  1
  O  O39  1  0.03450192  0.46325063  0.79519368  1
  O  O40  1  0.46549808  0.46325063  0.29519368  1
  O  O41  1  0.96549808  0.53674937  0.20480632  1
