# generated using pymatgen
data_LaSeO3F
_symmetry_space_group_name_H-M   'P 1'
_cell_length_a   7.13904226
_cell_length_b   8.47451245
_cell_length_c   18.13089186
_cell_angle_alpha   83.09681838
_cell_angle_beta   90.00000000
_cell_angle_gamma   90.00000000
_symmetry_Int_Tables_number   1
_chemical_formula_structural   LaSeO3F
_chemical_formula_sum   'La12 Se12 O36 F12'
_cell_volume   1088.96527468
_cell_formula_units_Z   12
loop_
 _symmetry_equiv_pos_site_id
 _symmetry_equiv_pos_as_xyz
  1  'x, y, z'
loop_
 _atom_site_type_symbol
 _atom_site_label
 _atom_site_symmetry_multiplicity
 _atom_site_fract_x
 _atom_site_fract_y
 _atom_site_fract_z
 _atom_site_occupancy
  La  La0  1  0.66865243  0.38218598  0.15347687  1
  La  La1  1  0.67111034  0.20183952  0.95382569  1
  La  La2  1  0.82888966  0.70183952  0.95382569  1
  La  La3  1  0.16865243  0.11781402  0.84652313  1
  La  La4  1  0.83134757  0.88218598  0.15347687  1
  La  La5  1  0.17994283  0.18625979  0.54927694  1
  La  La6  1  0.67994283  0.31374021  0.45072306  1
  La  La7  1  0.32005717  0.68625979  0.54927694  1
  La  La8  1  0.17111034  0.29816048  0.04617431  1
  La  La9  1  0.33134757  0.61781402  0.84652313  1
  La  La10  1  0.32888966  0.79816048  0.04617431  1
  La  La11  1  0.82005717  0.81374021  0.45072306  1
  Se  Se12  1  0.90405656  0.09316230  0.30255173  1
  Se  Se13  1  0.67975073  0.02068546  0.60026306  1
  Se  Se14  1  0.82560287  0.47591648  0.80327302  1
  Se  Se15  1  0.17975073  0.47931454  0.39973694  1
  Se  Se16  1  0.40405656  0.40683770  0.69744827  1
  Se  Se17  1  0.67439713  0.97591648  0.80327302  1
  Se  Se18  1  0.32024927  0.97931454  0.39973694  1
  Se  Se19  1  0.09594344  0.90683770  0.69744827  1
  Se  Se20  1  0.17439713  0.52408352  0.19672698  1
  Se  Se21  1  0.59594344  0.59316230  0.30255173  1
  Se  Se22  1  0.82024927  0.52068546  0.60026306  1
  Se  Se23  1  0.32560287  0.02408352  0.19672698  1
  O  O24  1  0.98207810  0.58767067  0.84724943  1
  O  O25  1  0.11150987  0.71395281  0.16970730  1
  O  O26  1  0.01792190  0.41232933  0.15275057  1
  O  O27  1  0.08868825  0.63293640  0.43939501  1
  O  O28  1  0.88849013  0.28604719  0.83029270  1
  O  O29  1  0.38849013  0.21395281  0.16970730  1
  O  O30  1  0.51792190  0.08767067  0.84724943  1
  O  O31  1  0.74749637  0.62439653  0.22969845  1
  O  O32  1  0.63907119  0.47194552  0.86336857  1
  O  O33  1  0.93050752  0.89353251  0.30266913  1
  O  O34  1  0.35140310  0.43559835  0.46646326  1
  O  O35  1  0.73538279  0.58807963  0.37958027  1
  O  O36  1  0.03302264  0.32154814  0.42231521  1
  O  O37  1  0.75250363  0.12439653  0.22969845  1
  O  O38  1  0.64859690  0.56440165  0.53353674  1
  O  O39  1  0.46697736  0.82154814  0.42231521  1
  O  O40  1  0.24749637  0.87560347  0.77030155  1
  O  O41  1  0.14859690  0.93559835  0.46646326  1
  O  O42  1  0.23538279  0.91192037  0.62041973  1
  O  O43  1  0.58868825  0.86706360  0.56060499  1
  O  O44  1  0.53302264  0.17845186  0.57768479  1
  O  O45  1  0.41131175  0.13293640  0.43939501  1
  O  O46  1  0.36092881  0.52805448  0.13663143  1
  O  O47  1  0.26461721  0.41192037  0.62041973  1
  O  O48  1  0.25250363  0.37560347  0.77030155  1
  O  O49  1  0.85140310  0.06440165  0.53353674  1
  O  O50  1  0.43050752  0.60646749  0.69733087  1
  O  O51  1  0.61150987  0.78604719  0.83029270  1
  O  O52  1  0.13907119  0.02805448  0.13663143  1
  O  O53  1  0.91131175  0.36706360  0.56060499  1
  O  O54  1  0.86092881  0.97194552  0.86336857  1
  O  O55  1  0.76461721  0.08807963  0.37958027  1
  O  O56  1  0.96697736  0.67845186  0.57768479  1
  O  O57  1  0.48207810  0.91232933  0.15275057  1
  O  O58  1  0.06949248  0.10646749  0.69733087  1
  O  O59  1  0.56949248  0.39353251  0.30266913  1
  F  F60  1  0.29129125  0.34452608  0.91542021  1
  F  F61  1  0.50318381  0.34926768  0.03657691  1
  F  F62  1  0.20870875  0.84452608  0.91542021  1
  F  F63  1  0.70870875  0.65547392  0.08457979  1
  F  F64  1  0.00318381  0.15073232  0.96342309  1
  F  F65  1  0.99681619  0.84926768  0.03657691  1
  F  F66  1  0.85059096  0.41965201  0.00220366  1
  F  F67  1  0.64940904  0.91965201  0.00220366  1
  F  F68  1  0.79129125  0.15547392  0.08457979  1
  F  F69  1  0.14940904  0.58034799  0.99779634  1
  F  F70  1  0.49681619  0.65073232  0.96342309  1
  F  F71  1  0.35059096  0.08034799  0.99779634  1
