# generated using pymatgen
data_Rb2(TcSe2)3
_symmetry_space_group_name_H-M   'P 1'
_cell_length_a   10.23375806
_cell_length_b   10.23375806
_cell_length_c   12.54822085
_cell_angle_alpha   88.85643389
_cell_angle_beta   88.85643389
_cell_angle_gamma   59.76491044
_symmetry_Int_Tables_number   1
_chemical_formula_structural   Rb2(TcSe2)3
_chemical_formula_sum   'Rb8 Tc12 Se24'
_cell_volume   1135.10047480
_cell_formula_units_Z   4
loop_
 _symmetry_equiv_pos_site_id
 _symmetry_equiv_pos_as_xyz
  1  'x, y, z'
loop_
 _atom_site_type_symbol
 _atom_site_label
 _atom_site_symmetry_multiplicity
 _atom_site_fract_x
 _atom_site_fract_y
 _atom_site_fract_z
 _atom_site_occupancy
  Rb  Rb0  1  0.61974998  0.38025002  0.25000000  1
  Rb  Rb1  1  0.38025002  0.61974998  0.75000000  1
  Rb  Rb2  1  0.22043695  0.77956305  0.25000000  1
  Rb  Rb3  1  0.77956305  0.22043695  0.75000000  1
  Rb  Rb4  1  0.36302501  0.86120453  0.98068516  1
  Rb  Rb5  1  0.13879547  0.63697499  0.51931484  1
  Rb  Rb6  1  0.63697499  0.13879547  0.01931484  1
  Rb  Rb7  1  0.86120453  0.36302501  0.48068516  1
  Tc  Tc8  1  0.68068008  0.99676870  0.47716950  1
  Tc  Tc9  1  0.00323130  0.31931992  0.02283050  1
  Tc  Tc10  1  0.31931992  0.00323130  0.52283050  1
  Tc  Tc11  1  0.99676870  0.68068008  0.97716950  1
  Tc  Tc12  1  0.53525527  0.88558627  0.37781852  1
  Tc  Tc13  1  0.11441373  0.46474473  0.12218148  1
  Tc  Tc14  1  0.46474473  0.11441373  0.62218148  1
  Tc  Tc15  1  0.88558627  0.53525527  0.87781852  1
  Tc  Tc16  1  0.40088545  0.17603836  0.41763067  1
  Tc  Tc17  1  0.82396164  0.59911455  0.08236933  1
  Tc  Tc18  1  0.59911455  0.82396164  0.58236933  1
  Tc  Tc19  1  0.17603836  0.40088545  0.91763067  1
  Se  Se20  1  0.73691722  0.93320560  0.67005977  1
  Se  Se21  1  0.06679440  0.26308278  0.82994023  1
  Se  Se22  1  0.26308278  0.06679440  0.32994023  1
  Se  Se23  1  0.93320560  0.73691722  0.17005977  1
  Se  Se24  1  0.28022959  0.20024452  0.06247508  1
  Se  Se25  1  0.79975548  0.71977041  0.43752492  1
  Se  Se26  1  0.71977041  0.79975548  0.93752492  1
  Se  Se27  1  0.20024452  0.28022959  0.56247508  1
  Se  Se28  1  0.38610385  0.94870851  0.71582344  1
  Se  Se29  1  0.05129149  0.61389615  0.78417656  1
  Se  Se30  1  0.61389615  0.05129149  0.28417656  1
  Se  Se31  1  0.94870851  0.38610385  0.21582344  1
  Se  Se32  1  0.45648994  0.72160610  0.48243056  1
  Se  Se33  1  0.27839390  0.54351006  0.01756944  1
  Se  Se34  1  0.54351006  0.27839390  0.51756944  1
  Se  Se35  1  0.72160610  0.45648994  0.98243056  1
  Se  Se36  1  0.00369692  0.92827476  0.92252099  1
  Se  Se37  1  0.07172524  0.99630308  0.57747901  1
  Se  Se38  1  0.99630308  0.07172524  0.07747901  1
  Se  Se39  1  0.92827476  0.00369692  0.42252099  1
  Se  Se40  1  0.57351347  0.73047033  0.20135124  1
  Se  Se41  1  0.26952967  0.42648653  0.29864876  1
  Se  Se42  1  0.42648653  0.26952967  0.79864876  1
  Se  Se43  1  0.73047033  0.57351347  0.70135124  1
