# generated using pymatgen
data_LiTa3O8
_symmetry_space_group_name_H-M   'P 1'
_cell_length_a   7.62644998
_cell_length_b   8.93237957
_cell_length_c   16.64574727
_cell_angle_alpha   90.00000000
_cell_angle_beta   90.00000000
_cell_angle_gamma   90.00000000
_symmetry_Int_Tables_number   1
_chemical_formula_structural   LiTa3O8
_chemical_formula_sum   'Li8 Ta24 O64'
_cell_volume   1133.94735484
_cell_formula_units_Z   8
loop_
 _symmetry_equiv_pos_site_id
 _symmetry_equiv_pos_as_xyz
  1  'x, y, z'
loop_
 _atom_site_type_symbol
 _atom_site_label
 _atom_site_symmetry_multiplicity
 _atom_site_fract_x
 _atom_site_fract_y
 _atom_site_fract_z
 _atom_site_occupancy
  Li  Li0  1  0.75000000  0.54042203  0.00446692  1
  Li  Li1  1  0.75000000  0.54042203  0.49553308  1
  Li  Li2  1  0.75000000  0.09098445  0.08404083  1
  Li  Li3  1  0.25000000  0.45957797  0.99553308  1
  Li  Li4  1  0.25000000  0.45957797  0.50446692  1
  Li  Li5  1  0.75000000  0.09098445  0.41595917  1
  Li  Li6  1  0.25000000  0.90901555  0.91595917  1
  Li  Li7  1  0.25000000  0.90901555  0.58404083  1
  Ta  Ta8  1  0.99935430  0.81203316  0.06036568  1
  Ta  Ta9  1  0.99739348  0.39261759  0.36747941  1
  Ta  Ta10  1  0.00064570  0.18796684  0.93963432  1
  Ta  Ta11  1  0.00064570  0.18796684  0.56036568  1
  Ta  Ta12  1  0.00211668  0.68746821  0.25000000  1
  Ta  Ta13  1  0.50211668  0.31253179  0.75000000  1
  Ta  Ta14  1  0.49788332  0.68746821  0.25000000  1
  Ta  Ta15  1  0.99935430  0.81203316  0.43963432  1
  Ta  Ta16  1  0.99788332  0.31253179  0.75000000  1
  Ta  Ta17  1  0.50064570  0.81203316  0.43963432  1
  Ta  Ta18  1  0.00260652  0.60738241  0.63252059  1
  Ta  Ta19  1  0.49935430  0.18796684  0.93963432  1
  Ta  Ta20  1  0.50004145  0.05411633  0.25000000  1
  Ta  Ta21  1  0.00004145  0.94588367  0.75000000  1
  Ta  Ta22  1  0.49995855  0.94588367  0.75000000  1
  Ta  Ta23  1  0.49739348  0.60738241  0.86747941  1
  Ta  Ta24  1  -0.00004145  0.05411633  0.25000000  1
  Ta  Ta25  1  0.50260652  0.39261759  0.13252059  1
  Ta  Ta26  1  0.49739348  0.60738241  0.63252059  1
  Ta  Ta27  1  0.50260652  0.39261759  0.36747941  1
  Ta  Ta28  1  0.99739348  0.39261759  0.13252059  1
  Ta  Ta29  1  0.50064570  0.81203316  0.06036568  1
  Ta  Ta30  1  0.49935430  0.18796684  0.56036568  1
  Ta  Ta31  1  0.00260652  0.60738241  0.86747941  1
  O  O32  1  0.25000000  0.39790816  0.14024828  1
  O  O33  1  0.00095283  0.61951181  0.36838634  1
  O  O34  1  0.99904717  0.38048819  0.86838634  1
  O  O35  1  0.75000000  0.41733244  0.39980615  1
  O  O36  1  0.96827447  0.12435185  0.67507155  1
  O  O37  1  0.03172553  0.87564815  0.32492845  1
  O  O38  1  0.45456477  0.33968717  0.01963336  1
  O  O39  1  0.25000000  0.58266756  0.60019385  1
  O  O40  1  0.50095283  0.38048819  0.63161366  1
  O  O41  1  0.47173917  0.55020007  0.75000000  1
  O  O42  1  0.45532262  0.81272222  0.83950782  1
  O  O43  1  0.46827447  0.87564815  0.17507155  1
  O  O44  1  0.25000000  0.14755304  0.92466050  1
  O  O45  1  0.75000000  0.01385164  0.25000000  1
  O  O46  1  0.49904717  0.61951181  0.36838634  1
  O  O47  1  0.00095283  0.61951181  0.13161366  1
  O  O48  1  0.25000000  0.66151902  0.25000000  1
  O  O49  1  0.52826083  0.44979993  0.25000000  1
  O  O50  1  0.04543523  0.33968717  0.01963336  1
  O  O51  1  0.54467738  0.18727778  0.16049218  1
  O  O52  1  0.95532262  0.18727778  0.33950782  1
  O  O53  1  0.75000000  0.41733244  0.10019385  1
  O  O54  1  0.45532262  0.81272222  0.66049218  1
  O  O55  1  0.50095283  0.38048819  0.86838634  1
  O  O56  1  0.02826083  0.55020007  0.75000000  1
  O  O57  1  0.49904717  0.61951181  0.13161366  1
  O  O58  1  0.75000000  0.60209184  0.64024828  1
  O  O59  1  0.75000000  0.60209184  0.85975172  1
  O  O60  1  0.25000000  0.80499276  0.03691983  1
  O  O61  1  0.25000000  0.58266756  0.89980615  1
  O  O62  1  0.99904717  0.38048819  0.63161366  1
  O  O63  1  0.50000000  -0.00000000  -0.00000000  1
  O  O64  1  0.45456477  0.33968717  0.48036664  1
  O  O65  1  0.54543523  0.66031283  0.51963336  1
  O  O66  1  0.96827447  0.12435185  0.82492845  1
  O  O67  1  0.95532262  0.18727778  0.16049218  1
  O  O68  1  0.97173917  0.44979993  0.25000000  1
  O  O69  1  0.04467738  0.81272222  0.66049218  1
  O  O70  1  0.25000000  0.80499276  0.46308017  1
  O  O71  1  0.75000000  0.19500724  0.96308017  1
  O  O72  1  0.75000000  0.90500660  0.75000000  1
  O  O73  1  0.75000000  0.85244696  0.07533950  1
  O  O74  1  0.53172553  0.12435185  0.82492845  1
  O  O75  1  0.75000000  0.70211013  0.25000000  1
  O  O76  1  0.54467738  0.18727778  0.33950782  1
  O  O77  1  0.03172553  0.87564815  0.17507155  1
  O  O78  1  0.95456477  0.66031283  0.98036664  1
  O  O79  1  0.50000000  -0.00000000  0.50000000  1
  O  O80  1  0.46827447  0.87564815  0.32492845  1
  O  O81  1  0.00000000  -0.00000000  0.50000000  1
  O  O82  1  0.25000000  0.39790816  0.35975172  1
  O  O83  1  0.95456477  0.66031283  0.51963336  1
  O  O84  1  0.25000000  0.09499340  0.25000000  1
  O  O85  1  0.25000000  0.98614836  0.75000000  1
  O  O86  1  0.75000000  0.33848098  0.75000000  1
  O  O87  1  0.53172553  0.12435185  0.67507155  1
  O  O88  1  0.75000000  0.19500724  0.53691983  1
  O  O89  1  0.04543523  0.33968717  0.48036664  1
  O  O90  1  0.25000000  0.29788987  0.75000000  1
  O  O91  1  0.00000000  -0.00000000  -0.00000000  1
  O  O92  1  0.04467738  0.81272222  0.83950782  1
  O  O93  1  0.25000000  0.14755304  0.57533950  1
  O  O94  1  0.54543523  0.66031283  0.98036664  1
  O  O95  1  0.75000000  0.85244696  0.42466050  1
