# generated using pymatgen
data_Pr3CCl5
_symmetry_space_group_name_H-M   'P 1'
_cell_length_a   8.24910170
_cell_length_b   8.24910170
_cell_length_c   15.88631609
_cell_angle_alpha   83.84417340
_cell_angle_beta   83.84417340
_cell_angle_gamma   63.81335554
_symmetry_Int_Tables_number   1
_chemical_formula_structural   Pr3CCl5
_chemical_formula_sum   'Pr12 C4 Cl20'
_cell_volume   962.30118992
_cell_formula_units_Z   4
loop_
 _symmetry_equiv_pos_site_id
 _symmetry_equiv_pos_as_xyz
  1  'x, y, z'
loop_
 _atom_site_type_symbol
 _atom_site_label
 _atom_site_symmetry_multiplicity
 _atom_site_fract_x
 _atom_site_fract_y
 _atom_site_fract_z
 _atom_site_occupancy
  Pr  Pr0  1  0.90947636  0.65668671  0.70336931  1
  Pr  Pr1  1  0.71522258  0.53931674  0.06266846  1
  Pr  Pr2  1  0.09052364  0.34331329  0.29663069  1
  Pr  Pr3  1  0.46068326  0.28477742  0.43733154  1
  Pr  Pr4  1  0.00346420  0.71278050  0.45390767  1
  Pr  Pr5  1  0.34331329  0.09052364  0.79663069  1
  Pr  Pr6  1  0.28721950  0.99653580  0.04609233  1
  Pr  Pr7  1  0.28477742  0.46068326  0.93733154  1
  Pr  Pr8  1  0.99653580  0.28721950  0.54609233  1
  Pr  Pr9  1  0.53931674  0.71522258  0.56266846  1
  Pr  Pr10  1  0.65668671  0.90947636  0.20336931  1
  Pr  Pr11  1  0.71278050  0.00346420  0.95390767  1
  C  C12  1  0.15161355  0.38941676  0.42944090  1
  C  C13  1  0.61058324  0.84838645  0.07055910  1
  C  C14  1  0.38941676  0.15161355  0.92944090  1
  C  C15  1  0.84838645  0.61058324  0.57055910  1
  Cl  Cl16  1  0.38376557  0.65457249  0.41868918  1
  Cl  Cl17  1  0.61623443  0.34542751  0.58131082  1
  Cl  Cl18  1  0.01438903  0.71975791  0.26426104  1
  Cl  Cl19  1  0.09836205  0.85053858  0.59925574  1
  Cl  Cl20  1  0.90163795  0.14946142  0.40074426  1
  Cl  Cl21  1  0.98561097  0.28024209  0.73573896  1
  Cl  Cl22  1  0.53516229  0.71891239  0.74352609  1
  Cl  Cl23  1  0.09863533  0.37796758  0.09442599  1
  Cl  Cl24  1  0.34542751  0.61623443  0.08131082  1
  Cl  Cl25  1  0.46483771  0.28108761  0.25647391  1
  Cl  Cl26  1  0.71891239  0.53516229  0.24352609  1
  Cl  Cl27  1  0.71975791  0.01438903  0.76426104  1
  Cl  Cl28  1  0.85053858  0.09836205  0.09925574  1
  Cl  Cl29  1  0.14946142  0.90163795  0.90074426  1
  Cl  Cl30  1  0.62203242  0.90136467  0.40557401  1
  Cl  Cl31  1  0.37796758  0.09863533  0.59442599  1
  Cl  Cl32  1  0.28108761  0.46483771  0.75647391  1
  Cl  Cl33  1  0.28024209  0.98561097  0.23573896  1
  Cl  Cl34  1  0.90136467  0.62203242  0.90557401  1
  Cl  Cl35  1  0.65457249  0.38376557  0.91868918  1
