# generated using pymatgen
data_BaY2Si3O10
_symmetry_space_group_name_H-M   'P 1'
_cell_length_a   12.19849748
_cell_length_b   5.41949637
_cell_length_c   6.86951287
_cell_angle_alpha   73.48330447
_cell_angle_beta   90.00000000
_cell_angle_gamma   90.00000000
_symmetry_Int_Tables_number   1
_chemical_formula_structural   BaY2Si3O10
_chemical_formula_sum   'Ba2 Y4 Si6 O20'
_cell_volume   435.40225136
_cell_formula_units_Z   2
loop_
 _symmetry_equiv_pos_site_id
 _symmetry_equiv_pos_as_xyz
  1  'x, y, z'
loop_
 _atom_site_type_symbol
 _atom_site_label
 _atom_site_symmetry_multiplicity
 _atom_site_fract_x
 _atom_site_fract_y
 _atom_site_fract_z
 _atom_site_occupancy
  Ba  Ba0  1  0.75000000  0.75928880  0.98134364  1
  Ba  Ba1  1  0.25000000  0.24071120  0.01865636  1
  Y  Y2  1  0.59910263  0.15749499  0.31615294  1
  Y  Y3  1  0.90089737  0.15749499  0.31615294  1
  Y  Y4  1  0.09910263  0.84250501  0.68384706  1
  Y  Y5  1  0.40089737  0.84250501  0.68384706  1
  Si  Si6  1  0.06114691  0.69543810  0.21335734  1
  Si  Si7  1  0.25000000  0.41828845  0.48755675  1
  Si  Si8  1  0.75000000  0.58171155  0.51244325  1
  Si  Si9  1  0.43885309  0.69543810  0.21335734  1
  Si  Si10  1  0.56114691  0.30456190  0.78664266  1
  Si  Si11  1  0.93885309  0.30456190  0.78664266  1
  O  O12  1  0.44972766  0.89597423  0.35192995  1
  O  O13  1  0.14276802  0.45278297  0.33790510  1
  O  O14  1  0.85723198  0.54721703  0.66209490  1
  O  O15  1  0.35723198  0.45278297  0.33790510  1
  O  O16  1  0.37776726  0.83636369  0.00287007  1
  O  O17  1  0.87776726  0.16363631  0.99712993  1
  O  O18  1  0.05492731  0.43353210  0.80945960  1
  O  O19  1  0.94972766  0.10402577  0.64807005  1
  O  O20  1  0.55027234  0.10402577  0.64807005  1
  O  O21  1  0.25000000  0.62924839  0.61280761  1
  O  O22  1  0.12223274  0.83636369  0.00287007  1
  O  O23  1  0.55492731  0.56646790  0.19054040  1
  O  O24  1  0.25000000  0.12496320  0.63325454  1
  O  O25  1  0.64276802  0.54721703  0.66209490  1
  O  O26  1  0.75000000  0.87503680  0.36674546  1
  O  O27  1  0.94507269  0.56646790  0.19054040  1
  O  O28  1  0.75000000  0.37075161  0.38719239  1
  O  O29  1  0.44507269  0.43353210  0.80945960  1
  O  O30  1  0.62223274  0.16363631  0.99712993  1
  O  O31  1  0.05027234  0.89597423  0.35192995  1
