# generated using pymatgen
data_Ag(BCl)6
_symmetry_space_group_name_H-M   'P 1'
_cell_length_a   12.43005590
_cell_length_b   12.43005590
_cell_length_c   12.43005590
_cell_angle_alpha   90.00000000
_cell_angle_beta   90.00000000
_cell_angle_gamma   90.00000000
_symmetry_Int_Tables_number   1
_chemical_formula_structural   Ag(BCl)6
_chemical_formula_sum   'Ag8 B48 Cl48'
_cell_volume   1920.52181759
_cell_formula_units_Z   8
loop_
 _symmetry_equiv_pos_site_id
 _symmetry_equiv_pos_as_xyz
  1  'x, y, z'
loop_
 _atom_site_type_symbol
 _atom_site_label
 _atom_site_symmetry_multiplicity
 _atom_site_fract_x
 _atom_site_fract_y
 _atom_site_fract_z
 _atom_site_occupancy
  Ag  Ag0  1  0.63335408  0.63335408  0.63335408  1
  Ag  Ag1  1  0.63335408  0.86664592  0.13335408  1
  Ag  Ag2  1  0.13335408  0.86664592  0.36664592  1
  Ag  Ag3  1  0.86664592  0.36664592  0.13335408  1
  Ag  Ag4  1  0.36664592  0.36664592  0.36664592  1
  Ag  Ag5  1  0.13335408  0.63335408  0.86664592  1
  Ag  Ag6  1  0.86664592  0.13335408  0.63335408  1
  Ag  Ag7  1  0.36664592  0.13335408  0.86664592  1
  B  B8  1  0.90598562  0.07213505  0.06623792  1
  B  B9  1  0.13091580  0.47228817  0.53063021  1
  B  B10  1  0.42786495  0.56623792  0.90598562  1
  B  B11  1  0.07213505  0.06623792  0.90598562  1
  B  B12  1  0.40598562  0.07213505  0.43376208  1
  B  B13  1  0.59401438  0.92786495  0.56623792  1
  B  B14  1  0.02771183  0.03063021  0.13091580  1
  B  B15  1  0.03063021  0.13091580  0.02771183  1
  B  B16  1  0.57213505  0.06623792  0.59401438  1
  B  B17  1  0.47228817  0.53063021  0.13091580  1
  B  B18  1  0.92786495  0.56623792  0.59401438  1
  B  B19  1  0.42786495  0.93376208  0.40598562  1
  B  B20  1  0.46936979  0.63091580  0.02771183  1
  B  B21  1  0.46936979  0.86908420  0.52771183  1
  B  B22  1  0.93376208  0.40598562  0.42786495  1
  B  B23  1  0.09401438  0.92786495  0.93376208  1
  B  B24  1  0.06623792  0.59401438  0.57213505  1
  B  B25  1  0.07213505  0.43376208  0.40598562  1
  B  B26  1  0.09401438  0.57213505  0.43376208  1
  B  B27  1  0.63091580  0.02771183  0.46936979  1
  B  B28  1  0.53063021  0.36908420  0.97228817  1
  B  B29  1  0.06623792  0.90598562  0.07213505  1
  B  B30  1  0.52771183  0.03063021  0.36908420  1
  B  B31  1  0.90598562  0.42786495  0.56623792  1
  B  B32  1  0.03063021  0.36908420  0.52771183  1
  B  B33  1  0.92786495  0.93376208  0.09401438  1
  B  B34  1  0.63091580  0.47228817  0.96936979  1
  B  B35  1  0.97228817  0.53063021  0.36908420  1
  B  B36  1  0.86908420  0.52771183  0.46936979  1
  B  B37  1  0.40598562  0.42786495  0.93376208  1
  B  B38  1  0.02771183  0.46936979  0.63091580  1
  B  B39  1  0.59401438  0.57213505  0.06623792  1
  B  B40  1  0.56623792  0.59401438  0.92786495  1
  B  B41  1  0.43376208  0.40598562  0.07213505  1
  B  B42  1  0.56623792  0.90598562  0.42786495  1
  B  B43  1  0.97228817  0.96936979  0.86908420  1
  B  B44  1  0.36908420  0.52771183  0.03063021  1
  B  B45  1  0.96936979  0.63091580  0.47228817  1
  B  B46  1  0.52771183  0.46936979  0.86908420  1
  B  B47  1  0.43376208  0.09401438  0.57213505  1
  B  B48  1  0.96936979  0.86908420  0.97228817  1
  B  B49  1  0.13091580  0.02771183  0.03063021  1
  B  B50  1  0.86908420  0.97228817  0.96936979  1
  B  B51  1  0.57213505  0.43376208  0.09401438  1
  B  B52  1  0.93376208  0.09401438  0.92786495  1
  B  B53  1  0.36908420  0.97228817  0.53063021  1
  B  B54  1  0.53063021  0.13091580  0.47228817  1
  B  B55  1  0.47228817  0.96936979  0.63091580  1
  Cl  Cl56  1  0.80367483  0.14761820  0.13263645  1
  Cl  Cl57  1  0.72946984  0.55391867  0.44316799  1
  Cl  Cl58  1  0.64761820  0.36736355  0.19632517  1
  Cl  Cl59  1  0.05683201  0.22946984  0.55391867  1
  Cl  Cl60  1  0.94608133  0.55683201  0.22946984  1
  Cl  Cl61  1  0.55391867  0.44316799  0.72946984  1
  Cl  Cl62  1  0.55683201  0.22946984  0.94608133  1
  Cl  Cl63  1  0.05683201  0.27053016  0.05391867  1
  Cl  Cl64  1  0.44316799  0.72946984  0.55391867  1
  Cl  Cl65  1  0.94316799  0.77053016  0.44608133  1
  Cl  Cl66  1  0.19632517  0.64761820  0.36736355  1
  Cl  Cl67  1  0.85238180  0.86736355  0.19632517  1
  Cl  Cl68  1  0.44608133  0.55683201  0.27053016  1
  Cl  Cl69  1  0.05391867  0.44316799  0.77053016  1
  Cl  Cl70  1  0.44608133  0.94316799  0.77053016  1
  Cl  Cl71  1  0.94608133  0.94316799  0.72946984  1
  Cl  Cl72  1  0.36736355  0.30367483  0.14761820  1
  Cl  Cl73  1  0.13263645  0.69632517  0.64761820  1
  Cl  Cl74  1  0.13263645  0.80367483  0.14761820  1
  Cl  Cl75  1  0.63263645  0.69632517  0.85238180  1
  Cl  Cl76  1  0.35238180  0.63263645  0.80367483  1
  Cl  Cl77  1  0.30367483  0.14761820  0.36736355  1
  Cl  Cl78  1  0.22946984  0.94608133  0.55683201  1
  Cl  Cl79  1  0.69632517  0.64761820  0.13263645  1
  Cl  Cl80  1  0.14761820  0.36736355  0.30367483  1
  Cl  Cl81  1  0.35238180  0.86736355  0.30367483  1
  Cl  Cl82  1  0.44316799  0.77053016  0.05391867  1
  Cl  Cl83  1  0.85238180  0.63263645  0.69632517  1
  Cl  Cl84  1  0.55391867  0.05683201  0.22946984  1
  Cl  Cl85  1  0.64761820  0.13263645  0.69632517  1
  Cl  Cl86  1  0.86736355  0.19632517  0.85238180  1
  Cl  Cl87  1  0.27053016  0.05391867  0.05683201  1
  Cl  Cl88  1  0.30367483  0.35238180  0.86736355  1
  Cl  Cl89  1  0.19632517  0.85238180  0.86736355  1
  Cl  Cl90  1  0.69632517  0.85238180  0.63263645  1
  Cl  Cl91  1  0.27053016  0.44608133  0.55683201  1
  Cl  Cl92  1  0.63263645  0.80367483  0.35238180  1
  Cl  Cl93  1  0.86736355  0.30367483  0.35238180  1
  Cl  Cl94  1  0.36736355  0.19632517  0.64761820  1
  Cl  Cl95  1  0.94316799  0.72946984  0.94608133  1
  Cl  Cl96  1  0.05391867  0.05683201  0.27053016  1
  Cl  Cl97  1  0.80367483  0.35238180  0.63263645  1
  Cl  Cl98  1  0.14761820  0.13263645  0.80367483  1
  Cl  Cl99  1  0.77053016  0.05391867  0.44316799  1
  Cl  Cl100  1  0.77053016  0.44608133  0.94316799  1
  Cl  Cl101  1  0.55683201  0.27053016  0.44608133  1
  Cl  Cl102  1  0.22946984  0.55391867  0.05683201  1
  Cl  Cl103  1  0.72946984  0.94608133  0.94316799  1
