# generated using pymatgen
data_BiSeClO3
_symmetry_space_group_name_H-M   'P 1'
_cell_length_a   6.45025506
_cell_length_b   7.93213600
_cell_length_c   8.64780763
_cell_angle_alpha   90.00000000
_cell_angle_beta   90.00000000
_cell_angle_gamma   90.00000000
_symmetry_Int_Tables_number   1
_chemical_formula_structural   BiSeClO3
_chemical_formula_sum   'Bi4 Se4 Cl4 O12'
_cell_volume   442.45902713
_cell_formula_units_Z   4
loop_
 _symmetry_equiv_pos_site_id
 _symmetry_equiv_pos_as_xyz
  1  'x, y, z'
loop_
 _atom_site_type_symbol
 _atom_site_label
 _atom_site_symmetry_multiplicity
 _atom_site_fract_x
 _atom_site_fract_y
 _atom_site_fract_z
 _atom_site_occupancy
  Bi  Bi0  1  0.96653164  0.80336022  0.82914901  1
  Bi  Bi1  1  0.46653164  0.69663978  0.17085099  1
  Bi  Bi2  1  0.53346836  0.19663978  0.32914901  1
  Bi  Bi3  1  0.03346836  0.30336022  0.67085099  1
  Se  Se4  1  0.84936489  0.90527271  0.44969604  1
  Se  Se5  1  0.34936489  0.59472729  0.55030396  1
  Se  Se6  1  0.15063511  0.40527271  0.05030396  1
  Se  Se7  1  0.65063511  0.09472729  0.94969604  1
  Cl  Cl8  1  0.75740918  0.48521594  0.35371787  1
  Cl  Cl9  1  0.24259082  0.98521594  0.14628213  1
  Cl  Cl10  1  0.74259082  0.51478406  0.85371787  1
  Cl  Cl11  1  0.25740918  0.01478406  0.64628213  1
  O  O12  1  0.11810702  0.60915354  0.64890783  1
  O  O13  1  0.16470723  0.62308789  0.03340100  1
  O  O14  1  0.26306544  0.65772279  0.37253233  1
  O  O15  1  0.61810702  0.89084646  0.35109217  1
  O  O16  1  0.76306544  0.84227721  0.62746767  1
  O  O17  1  0.33529277  0.37691211  0.53340100  1
  O  O18  1  0.73693456  0.15772279  0.12746767  1
  O  O19  1  0.83529277  0.12308789  0.46659900  1
  O  O20  1  0.66470723  0.87691211  0.96659900  1
  O  O21  1  0.88189298  0.10915354  0.85109217  1
  O  O22  1  0.38189298  0.39084646  0.14890783  1
  O  O23  1  0.23693456  0.34227721  0.87253233  1
