# generated using pymatgen
data_NaCa9Ti9Nb(SiO5)10
_symmetry_space_group_name_H-M   'P 1'
_cell_length_a   5.45717108
_cell_length_b   7.46026519
_cell_length_c   24.17734842
_cell_angle_alpha   98.16839626
_cell_angle_beta   87.61637006
_cell_angle_gamma   107.48085285
_symmetry_Int_Tables_number   1
_chemical_formula_structural   NaCa9Ti9Nb(SiO5)10
_chemical_formula_sum   'Na1 Ca9 Ti9 Nb1 Si10 O50'
_cell_volume   929.32350577
_cell_formula_units_Z   1
loop_
 _symmetry_equiv_pos_site_id
 _symmetry_equiv_pos_as_xyz
  1  'x, y, z'
loop_
 _atom_site_type_symbol
 _atom_site_label
 _atom_site_symmetry_multiplicity
 _atom_site_fract_x
 _atom_site_fract_y
 _atom_site_fract_z
 _atom_site_occupancy
  Na  Na0  1  0.22301293  0.39799282  0.81420793  1
  Ca  Ca1  1  0.81636585  0.98613108  0.61366271  1
  Ca  Ca2  1  0.41280660  0.58252526  0.41527118  1
  Ca  Ca3  1  0.38574654  0.21505637  0.98490340  1
  Ca  Ca4  1  0.01199196  0.18188827  0.21607777  1
  Ca  Ca5  1  0.97484929  0.80219979  0.78790339  1
  Ca  Ca6  1  0.60930861  0.78065537  0.01734951  1
  Ca  Ca7  1  0.59052086  0.42006315  0.58264460  1
  Ca  Ca8  1  0.18947528  0.01896213  0.38300952  1
  Ca  Ca9  1  0.78816678  0.61814016  0.18404942  1
  Ti  Ti10  1  0.29547462  0.79048603  0.90138629  1
  Ti  Ti11  1  0.90866648  0.40681123  0.69789954  1
  Ti  Ti12  1  0.50127325  0.00141800  0.49842594  1
  Ti  Ti13  1  0.20433048  0.70389749  0.59821675  1
  Ti  Ti14  1  0.09982793  0.60003891  0.29964115  1
  Ti  Ti15  1  0.80178103  0.30114284  0.39921683  1
  Ti  Ti16  1  0.69750701  0.19897287  0.10093989  1
  Ti  Ti17  1  0.39975032  0.89964976  0.20031904  1
  Ti  Ti18  1  0.99654930  0.49579231  0.00128216  1
  Nb  Nb19  1  0.60241750  0.10754267  0.80113433  1
  Si  Si20  1  0.89241839  0.07201269  0.91623394  1
  Si  Si21  1  0.49791679  0.67799989  0.71186950  1
  Si  Si22  1  0.70308612  0.52691594  0.88850910  1
  Si  Si23  1  0.09757850  0.27843755  0.51268528  1
  Si  Si24  1  0.30639268  0.12331327  0.68463517  1
  Si  Si25  1  0.69587265  0.87702752  0.31358870  1
  Si  Si26  1  0.90540830  0.72358696  0.48507986  1
  Si  Si27  1  0.29398031  0.47605346  0.11467507  1
  Si  Si28  1  0.50391037  0.32244503  0.28615824  1
  Si  Si29  1  0.10196155  0.92148242  0.08714293  1
  O  O30  1  0.53125628  0.65220055  0.86978116  1
  O  O31  1  0.24575631  0.67320296  0.96507837  1
  O  O32  1  0.12954663  0.24894764  0.66762948  1
  O  O33  1  0.03517660  0.28867073  0.94487285  1
  O  O34  1  0.87853733  0.06221935  0.84802480  1
  O  O35  1  0.99011453  0.60671690  0.86255696  1
  O  O36  1  0.85495729  0.28432690  0.76374571  1
  O  O37  1  0.72777627  0.84741494  0.46695361  1
  O  O38  1  0.65128783  0.89164128  0.74209271  1
  O  O39  1  0.60232092  0.99263584  0.94129624  1
  O  O40  1  0.49322679  0.67918162  0.64415438  1
  O  O41  1  0.70983232  0.52583258  0.95610742  1
  O  O42  1  0.59682770  0.20439992  0.65991270  1
  O  O43  1  0.55898257  0.30822277  0.86082929  1
  O  O44  1  0.45132598  0.87772088  0.56214163  1
  O  O45  1  0.32580769  0.44595463  0.26808411  1
  O  O46  1  0.34333959  0.91892821  0.83709794  1
  O  O47  1  0.24564946  0.49486856  0.54074694  1
  O  O48  1  0.20579426  0.60523361  0.73585332  1
  O  O49  1  0.08855069  0.27425729  0.44483309  1
  O  O50  1  0.31268933  0.11844448  0.75219687  1
  O  O51  1  0.19452889  0.80533117  0.45962318  1
  O  O52  1  0.15891116  0.90914987  0.65465341  1
  O  O53  1  0.04876078  0.47780306  0.36359514  1
  O  O54  1  0.92387747  0.04553813  0.06931491  1
  O  O55  1  0.07332681  0.95102315  0.93399752  1
  O  O56  1  0.95535297  0.52158441  0.63396933  1
  O  O57  1  0.84284376  0.09386408  0.34165581  1
  O  O58  1  0.80802926  0.19699639  0.53807438  1
  O  O59  1  0.68706211  0.87302621  0.24575452  1
  O  O60  1  0.91464496  0.72692246  0.55290028  1
  O  O61  1  0.79304497  0.40400911  0.26074840  1
  O  O62  1  0.75790376  0.50692594  0.45708630  1
  O  O63  1  0.64672726  0.07734998  0.16482329  1
  O  O64  1  0.67278715  0.55153871  0.72930689  1
  O  O65  1  0.55214107  0.12315775  0.43522574  1
  O  O66  1  0.44163943  0.69307188  0.14259167  1
  O  O67  1  0.40682984  0.79539586  0.33905785  1
  O  O68  1  0.28453164  0.47172808  0.04684366  1
  O  O69  1  0.51301156  0.32659813  0.35403032  1
  O  O70  1  0.39135723  0.00348157  0.06188191  1
  O  O71  1  0.35607100  0.10551502  0.25836911  1
  O  O72  1  0.27457802  0.15430525  0.53107090  1
  O  O73  1  0.15107298  0.72180188  0.23626690  1
  O  O74  1  0.00489214  0.39481906  0.14019440  1
  O  O75  1  0.11115692  0.92527379  0.15504291  1
  O  O76  1  0.95541993  0.70513668  0.05898386  1
  O  O77  1  0.87403236  0.75376750  0.33182346  1
  O  O78  1  0.74701393  0.32255198  0.03782222  1
  O  O79  1  0.47135497  0.35267700  0.13318594  1
