# generated using pymatgen
data_Hg2AsF6
_symmetry_space_group_name_H-M   'P 1'
_cell_length_a   11.35125284
_cell_length_b   5.36855412
_cell_length_c   9.96508495
_cell_angle_alpha   89.17442279
_cell_angle_beta   90.00000000
_cell_angle_gamma   90.00000000
_symmetry_Int_Tables_number   1
_chemical_formula_structural   Hg2AsF6
_chemical_formula_sum   'Hg8 As4 F24'
_cell_volume   607.20739568
_cell_formula_units_Z   4
loop_
 _symmetry_equiv_pos_site_id
 _symmetry_equiv_pos_as_xyz
  1  'x, y, z'
loop_
 _atom_site_type_symbol
 _atom_site_label
 _atom_site_symmetry_multiplicity
 _atom_site_fract_x
 _atom_site_fract_y
 _atom_site_fract_z
 _atom_site_occupancy
  Hg  Hg0  1  0.90305414  0.01654558  0.61583493  1
  Hg  Hg1  1  0.40305414  0.98345442  0.88416507  1
  Hg  Hg2  1  0.09694586  0.98345442  0.38416507  1
  Hg  Hg3  1  0.59694586  0.01654558  0.11583493  1
  Hg  Hg4  1  0.97433317  0.99937887  0.87166632  1
  Hg  Hg5  1  0.47433317  0.00062113  0.62833368  1
  Hg  Hg6  1  0.02566683  0.00062113  0.12833368  1
  Hg  Hg7  1  0.52566683  0.99937887  0.37166632  1
  As  As8  1  0.70112337  0.49635632  0.83269004  1
  As  As9  1  0.20112337  0.50364368  0.66730996  1
  As  As10  1  0.29887663  0.50364368  0.16730996  1
  As  As11  1  0.79887663  0.49635632  0.33269004  1
  F  F12  1  0.67930128  0.77056678  0.73976742  1
  F  F13  1  0.17930128  0.22943322  0.76023258  1
  F  F14  1  0.32069872  0.22943322  0.26023258  1
  F  F15  1  0.82069872  0.77056678  0.23976742  1
  F  F16  1  0.72479326  0.21834382  0.92549559  1
  F  F17  1  0.22479326  0.78165618  0.57450441  1
  F  F18  1  0.27520674  0.78165618  0.07450441  1
  F  F19  1  0.77520674  0.21834382  0.42549559  1
  F  F20  1  0.72872010  0.67137276  0.97574377  1
  F  F21  1  0.22872010  0.32862724  0.52425623  1
  F  F22  1  0.27127990  0.32862724  0.02425623  1
  F  F23  1  0.77127990  0.67137276  0.47574377  1
  F  F24  1  0.67458566  0.31946779  0.69040045  1
  F  F25  1  0.17458566  0.68053221  0.80959955  1
  F  F26  1  0.32541434  0.68053221  0.30959955  1
  F  F27  1  0.82541434  0.31946779  0.19040045  1
  F  F28  1  0.85142868  0.50429509  0.79531133  1
  F  F29  1  0.35142868  0.49570491  0.70468867  1
  F  F30  1  0.14857132  0.49570491  0.20468867  1
  F  F31  1  0.64857132  0.50429509  0.29531133  1
  F  F32  1  0.55258384  0.48446398  0.87375186  1
  F  F33  1  0.05258384  0.51553602  0.62624814  1
  F  F34  1  0.44741616  0.51553602  0.12624814  1
  F  F35  1  0.94741616  0.48446398  0.37375186  1
