# generated using pymatgen
data_F2
_symmetry_space_group_name_H-M   'P 1'
_cell_length_a   3.00731281
_cell_length_b   3.00731159
_cell_length_c   6.62161091
_cell_angle_alpha   85.86194585
_cell_angle_beta   94.13804113
_cell_angle_gamma   116.43108293
_symmetry_Int_Tables_number   1
_chemical_formula_structural   F2
_chemical_formula_sum   F4
_cell_volume   53.43199914
_cell_formula_units_Z   2
loop_
 _symmetry_equiv_pos_site_id
 _symmetry_equiv_pos_as_xyz
  1  'x, y, z'
loop_
 _atom_site_type_symbol
 _atom_site_label
 _atom_site_symmetry_multiplicity
 _atom_site_fract_x
 _atom_site_fract_y
 _atom_site_fract_z
 _atom_site_occupancy
  F  F0  1  0.91533597  0.40416712  0.59795550  1
  F  F1  1  0.40416712  0.91533597  0.90204450  1
  F  F2  1  0.08466403  0.59583288  0.40204450  1
  F  F3  1  0.59583288  0.08466403  0.09795550  1
