# generated using pymatgen
data_LiGa5O8
_symmetry_space_group_name_H-M   'P 1'
_cell_length_a   5.77445665
_cell_length_b   5.86771624
_cell_length_c   8.18970429
_cell_angle_alpha   90.00000000
_cell_angle_beta   90.00000000
_cell_angle_gamma   90.00000000
_symmetry_Int_Tables_number   1
_chemical_formula_structural   LiGa5O8
_chemical_formula_sum   'Li2 Ga10 O16'
_cell_volume   277.49071088
_cell_formula_units_Z   2
loop_
 _symmetry_equiv_pos_site_id
 _symmetry_equiv_pos_as_xyz
  1  'x, y, z'
loop_
 _atom_site_type_symbol
 _atom_site_label
 _atom_site_symmetry_multiplicity
 _atom_site_fract_x
 _atom_site_fract_y
 _atom_site_fract_z
 _atom_site_occupancy
  Li  Li0  1  0.50000000  0.50000000  0.00000000  1
  Li  Li1  1  0.50000000  0.00000000  0.50000000  1
  Ga  Ga2  1  0.75669980  0.00000000  0.88358523  1
  Ga  Ga3  1  -0.00000000  0.00000000  0.50000000  1
  Ga  Ga4  1  0.26954855  0.75000000  0.75000000  1
  Ga  Ga5  1  0.73045145  0.25000000  0.25000000  1
  Ga  Ga6  1  0.24330020  0.00000000  0.11641477  1
  Ga  Ga7  1  0.75669980  0.50000000  0.61641477  1
  Ga  Ga8  1  0.73045145  0.75000000  0.25000000  1
  Ga  Ga9  1  0.26954855  0.25000000  0.75000000  1
  Ga  Ga10  1  -0.00000000  0.50000000  0.00000000  1
  Ga  Ga11  1  0.24330020  0.50000000  0.38358523  1
  O  O12  1  0.98102559  0.00000000  0.25675088  1
  O  O13  1  0.24067198  0.73768775  0.98840587  1
  O  O14  1  0.49101900  0.50000000  0.74580464  1
  O  O15  1  0.75932802  0.23768775  0.48840587  1
  O  O16  1  0.50898100  0.50000000  0.25419536  1
  O  O17  1  0.24067198  0.76231225  0.51159413  1
  O  O18  1  0.01897441  0.00000000  0.74324912  1
  O  O19  1  0.75932802  0.26231225  0.01159413  1
  O  O20  1  0.24067198  0.23768775  0.51159413  1
  O  O21  1  0.98102559  0.50000000  0.24324912  1
  O  O22  1  0.75932802  0.73768775  0.01159413  1
  O  O23  1  0.49101900  0.00000000  0.75419536  1
  O  O24  1  0.24067198  0.26231225  0.98840587  1
  O  O25  1  0.50898100  0.00000000  0.24580464  1
  O  O26  1  0.75932802  0.76231225  0.48840587  1
  O  O27  1  0.01897441  0.50000000  0.75675088  1
