# generated using pymatgen
data_CoP4O11
_symmetry_space_group_name_H-M   'P 1'
_cell_length_a   22.32622619
_cell_length_b   5.31222666
_cell_length_c   7.36797765
_cell_angle_alpha   69.99126395
_cell_angle_beta   90.00000000
_cell_angle_gamma   90.00000000
_symmetry_Int_Tables_number   1
_chemical_formula_structural   CoP4O11
_chemical_formula_sum   'Co4 P16 O44'
_cell_volume   821.11110691
_cell_formula_units_Z   4
loop_
 _symmetry_equiv_pos_site_id
 _symmetry_equiv_pos_as_xyz
  1  'x, y, z'
loop_
 _atom_site_type_symbol
 _atom_site_label
 _atom_site_symmetry_multiplicity
 _atom_site_fract_x
 _atom_site_fract_y
 _atom_site_fract_z
 _atom_site_occupancy
  Co  Co0  1  0.38561911  0.99548408  0.36937028  1
  Co  Co1  1  0.88561911  0.00451592  0.13062972  1
  Co  Co2  1  0.61438089  0.00451592  0.63062972  1
  Co  Co3  1  0.11438089  0.99548408  0.86937028  1
  P  P4  1  0.46483149  0.59641295  0.21129988  1
  P  P5  1  0.96483149  0.40358705  0.28870012  1
  P  P6  1  0.53516851  0.40358705  0.78870012  1
  P  P7  1  0.03516851  0.59641295  0.71129988  1
  P  P8  1  0.57207401  0.30338942  0.18776119  1
  P  P9  1  0.07207401  0.69661058  0.31223881  1
  P  P10  1  0.42792599  0.69661058  0.81223881  1
  P  P11  1  0.92792599  0.30338942  0.68776119  1
  P  P12  1  0.67814472  0.67854282  0.05414843  1
  P  P13  1  0.17814472  0.32145718  0.44585157  1
  P  P14  1  0.32185528  0.32145718  0.94585157  1
  P  P15  1  0.82185528  0.67854282  0.55414843  1
  P  P16  1  0.80409272  0.60436810  0.97157095  1
  P  P17  1  0.30409272  0.39563190  0.52842905  1
  P  P18  1  0.19590728  0.39563190  0.02842905  1
  P  P19  1  0.69590728  0.60436810  0.47157095  1
  O  O20  1  0.45590450  0.77911583  0.31947088  1
  O  O21  1  0.95590450  0.22088417  0.18052912  1
  O  O22  1  0.54409550  0.22088417  0.68052912  1
  O  O23  1  0.04409550  0.77911583  0.81947088  1
  O  O24  1  0.43379549  0.33902851  0.25198166  1
  O  O25  1  0.93379549  0.66097149  0.24801834  1
  O  O26  1  0.56620451  0.66097149  0.74801834  1
  O  O27  1  0.06620451  0.33902851  0.75198166  1
  O  O28  1  0.54529340  0.23104869  0.01676268  1
  O  O29  1  0.04529340  0.76895131  0.48323732  1
  O  O30  1  0.45470660  0.76895131  0.98323732  1
  O  O31  1  0.95470660  0.23104869  0.51676268  1
  O  O32  1  0.53661576  0.54815503  0.20573387  1
  O  O33  1  0.03661576  0.45184497  0.29426613  1
  O  O34  1  0.46338424  0.45184497  0.79426613  1
  O  O35  1  0.96338424  0.54815503  0.70573387  1
  O  O36  1  0.57667015  0.06578302  0.35976118  1
  O  O37  1  0.07667015  0.93421698  0.14023882  1
  O  O38  1  0.42332985  0.93421698  0.64023882  1
  O  O39  1  0.92332985  0.06578302  0.85976118  1
  O  O40  1  0.63515226  0.42962947  0.11616137  1
  O  O41  1  0.13515226  0.57037053  0.38383863  1
  O  O42  1  0.36484774  0.57037053  0.88383863  1
  O  O43  1  0.86484774  0.42962947  0.61616137  1
  O  O44  1  0.65539484  0.91766202  0.90437080  1
  O  O45  1  0.15539484  0.08233798  0.59562920  1
  O  O46  1  0.34460516  0.08233798  0.09562920  1
  O  O47  1  0.84460516  0.91766202  0.40437080  1
  O  O48  1  0.73327536  0.53635108  0.00056568  1
  O  O49  1  0.23327536  0.46364892  0.49943432  1
  O  O50  1  0.26672464  0.46364892  0.99943432  1
  O  O51  1  0.76672464  0.53635108  0.50056568  1
  O  O52  1  0.69359384  0.74496428  0.23864765  1
  O  O53  1  0.19359384  0.25503572  0.26135235  1
  O  O54  1  0.30640616  0.25503572  0.76135235  1
  O  O55  1  0.80640616  0.74496428  0.73864765  1
  O  O56  1  0.81568934  0.81191001  0.05759014  1
  O  O57  1  0.31568934  0.18808999  0.44240986  1
  O  O58  1  0.18431066  0.18808999  0.94240986  1
  O  O59  1  0.68431066  0.81191001  0.55759014  1
  O  O60  1  0.83709281  0.35153332  0.02372336  1
  O  O61  1  0.33709281  0.64846668  0.47627664  1
  O  O62  1  0.16290719  0.64846668  0.97627664  1
  O  O63  1  0.66290719  0.35153332  0.52372336  1
