# generated using pymatgen
data_K2(TcSe2)3
_symmetry_space_group_name_H-M   'P 1'
_cell_length_a   10.00963706
_cell_length_b   10.00963706
_cell_length_c   12.40673544
_cell_angle_alpha   88.63144460
_cell_angle_beta   88.63144460
_cell_angle_gamma   60.75076186
_symmetry_Int_Tables_number   1
_chemical_formula_structural   K2(TcSe2)3
_chemical_formula_sum   'K8 Tc12 Se24'
_cell_volume   1084.16250461
_cell_formula_units_Z   4
loop_
 _symmetry_equiv_pos_site_id
 _symmetry_equiv_pos_as_xyz
  1  'x, y, z'
loop_
 _atom_site_type_symbol
 _atom_site_label
 _atom_site_symmetry_multiplicity
 _atom_site_fract_x
 _atom_site_fract_y
 _atom_site_fract_z
 _atom_site_occupancy
  K  K0  1  0.60193631  0.39806369  0.75000000  1
  K  K1  1  0.39806369  0.60193631  0.25000000  1
  K  K2  1  0.21724512  0.78275488  0.75000000  1
  K  K3  1  0.78275488  0.21724512  0.25000000  1
  K  K4  1  0.12284920  0.64729014  0.01905340  1
  K  K5  1  0.35270986  0.87715080  0.48094660  1
  K  K6  1  0.87715080  0.35270986  0.98094660  1
  K  K7  1  0.64729014  0.12284920  0.51905340  1
  Tc  Tc8  1  0.00373515  0.31627665  0.52644739  1
  Tc  Tc9  1  0.68372335  0.99626485  0.97355261  1
  Tc  Tc10  1  0.99626485  0.68372335  0.47355261  1
  Tc  Tc11  1  0.31627665  0.00373515  0.02644739  1
  Tc  Tc12  1  0.11140306  0.47144313  0.62487806  1
  Tc  Tc13  1  0.52855687  0.88859694  0.87512194  1
  Tc  Tc14  1  0.88859694  0.52855687  0.37512194  1
  Tc  Tc15  1  0.47144313  0.11140306  0.12487806  1
  Tc  Tc16  1  0.81886315  0.60049545  0.58017622  1
  Tc  Tc17  1  0.39950455  0.18113685  0.91982378  1
  Tc  Tc18  1  0.18113685  0.39950455  0.41982378  1
  Tc  Tc19  1  0.60049545  0.81886315  0.08017622  1
  Se  Se20  1  0.07310292  0.25294277  0.33281279  1
  Se  Se21  1  0.74705723  0.92689708  0.16718721  1
  Se  Se22  1  0.92689708  0.74705723  0.66718721  1
  Se  Se23  1  0.25294277  0.07310292  0.83281279  1
  Se  Se24  1  0.79755474  0.71584729  0.92984907  1
  Se  Se25  1  0.28415271  0.20244526  0.57015093  1
  Se  Se26  1  0.20244526  0.28415271  0.07015093  1
  Se  Se27  1  0.71584729  0.79755474  0.42984907  1
  Se  Se28  1  0.06084098  0.60883445  0.28009065  1
  Se  Se29  1  0.39116555  0.93915902  0.21990935  1
  Se  Se30  1  0.93915902  0.39116555  0.71990935  1
  Se  Se31  1  0.60883445  0.06084098  0.78009065  1
  Se  Se32  1  0.27935566  0.55307888  0.51853414  1
  Se  Se33  1  0.44692112  0.72064434  0.98146586  1
  Se  Se34  1  0.72064434  0.44692112  0.48146586  1
  Se  Se35  1  0.55307888  0.27935566  0.01853414  1
  Se  Se36  1  0.06529602  0.99765951  0.08146547  1
  Se  Se37  1  0.00234049  0.93470398  0.41853453  1
  Se  Se38  1  0.93470398  0.00234049  0.91853453  1
  Se  Se39  1  0.99765951  0.06529602  0.58146547  1
  Se  Se40  1  0.26261731  0.44043313  0.80506671  1
  Se  Se41  1  0.55956687  0.73738269  0.69493329  1
  Se  Se42  1  0.73738269  0.55956687  0.19493329  1
  Se  Se43  1  0.44043313  0.26261731  0.30506671  1
