# generated using pymatgen
data_CsBi3Se5
_symmetry_space_group_name_H-M   'P 1'
_cell_length_a   4.17921019
_cell_length_b   12.47823959
_cell_length_c   22.94750304
_cell_angle_alpha   90.00000000
_cell_angle_beta   90.00000000
_cell_angle_gamma   90.00000000
_symmetry_Int_Tables_number   1
_chemical_formula_structural   CsBi3Se5
_chemical_formula_sum   'Cs4 Bi12 Se20'
_cell_volume   1196.69360537
_cell_formula_units_Z   4
loop_
 _symmetry_equiv_pos_site_id
 _symmetry_equiv_pos_as_xyz
  1  'x, y, z'
loop_
 _atom_site_type_symbol
 _atom_site_label
 _atom_site_symmetry_multiplicity
 _atom_site_fract_x
 _atom_site_fract_y
 _atom_site_fract_z
 _atom_site_occupancy
  Cs  Cs0  1  0.25000000  0.98996422  0.28678241  1
  Cs  Cs1  1  0.75000000  0.48996422  0.21321759  1
  Cs  Cs2  1  0.75000000  0.01003578  0.71321759  1
  Cs  Cs3  1  0.25000000  0.51003578  0.78678241  1
  Bi  Bi4  1  0.75000000  0.80419609  0.12199624  1
  Bi  Bi5  1  0.25000000  0.40693626  0.57356212  1
  Bi  Bi6  1  0.25000000  0.19580391  0.87800376  1
  Bi  Bi7  1  0.75000000  0.59306374  0.42643788  1
  Bi  Bi8  1  0.25000000  0.09306374  0.07356212  1
  Bi  Bi9  1  0.25000000  0.63630019  0.97588562  1
  Bi  Bi10  1  0.25000000  0.30419609  0.37800376  1
  Bi  Bi11  1  0.25000000  0.86369981  0.47588562  1
  Bi  Bi12  1  0.75000000  0.90693626  0.92643788  1
  Bi  Bi13  1  0.75000000  0.69580391  0.62199624  1
  Bi  Bi14  1  0.75000000  0.36369981  0.02411438  1
  Bi  Bi15  1  0.75000000  0.13630019  0.52411438  1
  Se  Se16  1  0.25000000  0.75195958  0.69665220  1
  Se  Se17  1  0.75000000  0.13948293  0.98096225  1
  Se  Se18  1  0.25000000  0.30559662  0.11028166  1
  Se  Se19  1  0.75000000  0.58433950  0.06180234  1
  Se  Se20  1  0.25000000  0.08433950  0.43819766  1
  Se  Se21  1  0.75000000  0.91566050  0.56180234  1
  Se  Se22  1  0.25000000  0.41566050  0.93819766  1
  Se  Se23  1  0.25000000  0.86051707  0.01903775  1
  Se  Se24  1  0.75000000  0.36051707  0.48096225  1
  Se  Se25  1  0.75000000  0.25195958  0.80334780  1
  Se  Se26  1  0.25000000  0.52674664  0.34647369  1
  Se  Se27  1  0.25000000  0.97325336  0.84647369  1
  Se  Se28  1  0.75000000  0.80559662  0.38971834  1
  Se  Se29  1  0.75000000  0.47325336  0.65352631  1
  Se  Se30  1  0.25000000  0.19440338  0.61028166  1
  Se  Se31  1  0.25000000  0.74804042  0.19665220  1
  Se  Se32  1  0.75000000  0.02674664  0.15352631  1
  Se  Se33  1  0.75000000  0.24804042  0.30334780  1
  Se  Se34  1  0.75000000  0.69440338  0.88971834  1
  Se  Se35  1  0.25000000  0.63948293  0.51903775  1
