# generated using pymatgen
data_CsSmSiS4
_symmetry_space_group_name_H-M   'P 1'
_cell_length_a   6.44878824
_cell_length_b   6.76939320
_cell_length_c   17.87171361
_cell_angle_alpha   90.00000000
_cell_angle_beta   90.00000000
_cell_angle_gamma   90.00000000
_symmetry_Int_Tables_number   1
_chemical_formula_structural   CsSmSiS4
_chemical_formula_sum   'Cs4 Sm4 Si4 S16'
_cell_volume   780.17863545
_cell_formula_units_Z   4
loop_
 _symmetry_equiv_pos_site_id
 _symmetry_equiv_pos_as_xyz
  1  'x, y, z'
loop_
 _atom_site_type_symbol
 _atom_site_label
 _atom_site_symmetry_multiplicity
 _atom_site_fract_x
 _atom_site_fract_y
 _atom_site_fract_z
 _atom_site_occupancy
  Cs  Cs0  1  0.00889132  0.50755755  0.46741187  1
  Cs  Cs1  1  0.49110868  0.49244245  0.96741187  1
  Cs  Cs2  1  0.99110868  0.00755755  0.03258813  1
  Cs  Cs3  1  0.50889132  0.99244245  0.53258813  1
  Sm  Sm4  1  0.20755024  0.52007078  0.72811762  1
  Sm  Sm5  1  0.70755024  0.97992922  0.27188238  1
  Sm  Sm6  1  0.79244976  0.02007078  0.77188238  1
  Sm  Sm7  1  0.29244976  0.47992922  0.22811762  1
  Si  Si8  1  0.78939796  0.51588156  0.16658227  1
  Si  Si9  1  0.28939796  0.98411844  0.83341773  1
  Si  Si10  1  0.71060204  0.48411844  0.66658227  1
  Si  Si11  1  0.21060204  0.01588156  0.33341773  1
  S  S12  1  0.54912803  0.98820719  0.90415290  1
  S  S13  1  0.60816590  0.25401896  0.15448424  1
  S  S14  1  0.11510439  0.06574188  0.22139720  1
  S  S15  1  0.42824309  0.24561811  0.35463012  1
  S  S16  1  0.38489561  0.93425812  0.72139720  1
  S  S17  1  0.39183410  0.75401896  0.34551576  1
  S  S18  1  0.89183410  0.74598104  0.65448424  1
  S  S19  1  0.61510439  0.43425812  0.77860280  1
  S  S20  1  0.95087197  0.01179281  0.40415290  1
  S  S21  1  0.57175691  0.74561811  0.14536988  1
  S  S22  1  0.04912803  0.51179281  0.09584710  1
  S  S23  1  0.07175691  0.75438189  0.85463012  1
  S  S24  1  0.10816590  0.24598104  0.84551576  1
  S  S25  1  0.92824309  0.25438189  0.64536988  1
  S  S26  1  0.45087197  0.48820719  0.59584710  1
  S  S27  1  0.88489561  0.56574188  0.27860280  1
