# generated using pymatgen
data_Ca2GeS4
_symmetry_space_group_name_H-M   'P 1'
_cell_length_a   6.32883526
_cell_length_b   8.22427351
_cell_length_c   13.73188832
_cell_angle_alpha   90.00000000
_cell_angle_beta   90.00000000
_cell_angle_gamma   90.00000000
_symmetry_Int_Tables_number   1
_chemical_formula_structural   Ca2GeS4
_chemical_formula_sum   'Ca8 Ge4 S16'
_cell_volume   714.74577820
_cell_formula_units_Z   4
loop_
 _symmetry_equiv_pos_site_id
 _symmetry_equiv_pos_as_xyz
  1  'x, y, z'
loop_
 _atom_site_type_symbol
 _atom_site_label
 _atom_site_symmetry_multiplicity
 _atom_site_fract_x
 _atom_site_fract_y
 _atom_site_fract_z
 _atom_site_occupancy
  Ca  Ca0  1  0.00000000  0.00000000  -0.00000000  1
  Ca  Ca1  1  0.50000000  0.00000000  0.50000000  1
  Ca  Ca2  1  0.00000000  0.50000000  -0.00000000  1
  Ca  Ca3  1  0.50000000  0.50000000  0.50000000  1
  Ca  Ca4  1  0.48330933  0.75000000  0.22663926  1
  Ca  Ca5  1  0.98330933  0.25000000  0.27336074  1
  Ca  Ca6  1  0.51669067  0.25000000  0.77336074  1
  Ca  Ca7  1  0.01669067  0.75000000  0.72663926  1
  Ge  Ge8  1  0.90813823  0.75000000  0.40686956  1
  Ge  Ge9  1  0.40813823  0.25000000  0.09313044  1
  Ge  Ge10  1  0.09186177  0.25000000  0.59313044  1
  Ge  Ge11  1  0.59186177  0.75000000  0.90686956  1
  S  S12  1  0.77193337  0.75000000  0.55691211  1
  S  S13  1  0.27193337  0.25000000  0.94308789  1
  S  S14  1  0.22806663  0.25000000  0.44308789  1
  S  S15  1  0.72806663  0.75000000  0.05691211  1
  S  S16  1  0.25536853  0.75000000  0.40691290  1
  S  S17  1  0.75536853  0.25000000  0.09308710  1
  S  S18  1  0.74463147  0.25000000  0.59308710  1
  S  S19  1  0.24463147  0.75000000  0.90691290  1
  S  S20  1  0.76081090  0.96182981  0.33167948  1
  S  S21  1  0.26081090  0.03817019  0.16832052  1
  S  S22  1  0.23918910  0.46182981  0.66832052  1
  S  S23  1  0.73918910  0.53817019  0.83167948  1
  S  S24  1  0.23918910  0.03817019  0.66832052  1
  S  S25  1  0.73918910  0.96182981  0.83167948  1
  S  S26  1  0.76081090  0.53817019  0.33167948  1
  S  S27  1  0.26081090  0.46182981  0.16832052  1
