# generated using pymatgen
data_AlPI8
_symmetry_space_group_name_H-M   'P 1'
_cell_length_a   10.76546383
_cell_length_b   11.31620385
_cell_length_c   15.85777649
_cell_angle_alpha   90.00000000
_cell_angle_beta   90.00000000
_cell_angle_gamma   90.00000000
_symmetry_Int_Tables_number   1
_chemical_formula_structural   AlPI8
_chemical_formula_sum   'Al4 P4 I32'
_cell_volume   1931.86066890
_cell_formula_units_Z   4
loop_
 _symmetry_equiv_pos_site_id
 _symmetry_equiv_pos_as_xyz
  1  'x, y, z'
loop_
 _atom_site_type_symbol
 _atom_site_label
 _atom_site_symmetry_multiplicity
 _atom_site_fract_x
 _atom_site_fract_y
 _atom_site_fract_z
 _atom_site_occupancy
  Al  Al0  1  0.99385592  0.91966732  0.66231501  1
  Al  Al1  1  0.49385592  0.58033268  0.16231501  1
  Al  Al2  1  0.00614408  0.08033268  0.16231501  1
  Al  Al3  1  0.50614408  0.41966732  0.66231501  1
  P  P4  1  0.01114196  0.45755264  0.44950938  1
  P  P5  1  0.51114196  0.04244736  0.94950938  1
  P  P6  1  0.98885804  0.54244736  0.94950938  1
  P  P7  1  0.48885804  0.95755264  0.44950938  1
  I  I8  1  0.49072410  0.60714207  0.74648808  1
  I  I9  1  0.62940532  0.97008846  0.82848751  1
  I  I10  1  0.55158564  0.55074819  0.00601955  1
  I  I11  1  0.95757148  0.75331960  0.97537813  1
  I  I12  1  0.54242852  0.25331960  0.97537813  1
  I  I13  1  0.05158564  0.94925181  0.50601955  1
  I  I14  1  0.87059468  0.47008846  0.82848751  1
  I  I15  1  0.29212320  0.01485415  0.92337999  1
  I  I16  1  0.64943840  0.73102684  0.22143942  1
  I  I17  1  0.50927590  0.39285793  0.24648808  1
  I  I18  1  0.85056160  0.23102684  0.22143942  1
  I  I19  1  0.99072410  0.89285793  0.24648808  1
  I  I20  1  0.35056160  0.26897316  0.72143942  1
  I  I21  1  0.70787680  0.98514585  0.42337999  1
  I  I22  1  0.20787680  0.51485415  0.92337999  1
  I  I23  1  0.37059468  0.02991154  0.32848751  1
  I  I24  1  0.43022455  0.07726743  0.57210961  1
  I  I25  1  0.72351540  0.32852529  0.66834432  1
  I  I26  1  0.45757148  0.74668040  0.47537813  1
  I  I27  1  0.56977545  0.92273257  0.07210961  1
  I  I28  1  0.77648460  0.82852529  0.66834432  1
  I  I29  1  0.93022455  0.42273257  0.07210961  1
  I  I30  1  0.00927590  0.10714207  0.74648808  1
  I  I31  1  0.14943840  0.76897316  0.72143942  1
  I  I32  1  0.12940532  0.52991154  0.32848751  1
  I  I33  1  0.44841436  0.44925181  0.50601955  1
  I  I34  1  0.22351540  0.17147471  0.16834432  1
  I  I35  1  0.79212320  0.48514585  0.42337999  1
  I  I36  1  0.06977545  0.57726743  0.57210961  1
  I  I37  1  0.27648460  0.67147471  0.16834432  1
  I  I38  1  0.04242852  0.24668040  0.47537813  1
  I  I39  1  0.94841436  0.05074819  0.00601955  1
