# generated using pymatgen
data_Nb2O5
_symmetry_space_group_name_H-M   'P 1'
_cell_length_a   14.71132806
_cell_length_b   14.71132806
_cell_length_c   14.71132806
_cell_angle_alpha   90.97627693
_cell_angle_beta   90.97627693
_cell_angle_gamma   164.99940875
_symmetry_Int_Tables_number   1
_chemical_formula_structural   Nb2O5
_chemical_formula_sum   'Nb16 O40'
_cell_volume   817.02786389
_cell_formula_units_Z   8
loop_
 _symmetry_equiv_pos_site_id
 _symmetry_equiv_pos_as_xyz
  1  'x, y, z'
loop_
 _atom_site_type_symbol
 _atom_site_label
 _atom_site_symmetry_multiplicity
 _atom_site_fract_x
 _atom_site_fract_y
 _atom_site_fract_z
 _atom_site_occupancy
  Nb  Nb0  1  0.26647158  0.86483928  0.13131087  1
  Nb  Nb1  1  -0.00000000  0.86844801  0.86844801  1
  Nb  Nb2  1  0.00000000  0.40077054  0.40077054  1
  Nb  Nb3  1  0.40077054  -0.00000000  0.40077054  1
  Nb  Nb4  1  0.86483928  0.73352842  0.59836870  1
  Nb  Nb5  1  0.59922946  -0.00000000  0.59922946  1
  Nb  Nb6  1  0.13516072  0.26647158  0.40163130  1
  Nb  Nb7  1  0.13155199  -0.00000000  0.13155199  1
  Nb  Nb8  1  -0.00000000  0.13155199  0.13155199  1
  Nb  Nb9  1  0.86844801  -0.00000000  0.86844801  1
  Nb  Nb10  1  0.86483928  0.26647158  0.13131087  1
  Nb  Nb11  1  -0.00000000  0.59922946  0.59922946  1
  Nb  Nb12  1  0.73352842  0.86483928  0.59836870  1
  Nb  Nb13  1  0.73352842  0.13516072  0.86868913  1
  Nb  Nb14  1  0.26647158  0.13516072  0.40163130  1
  Nb  Nb15  1  0.13516072  0.73352842  0.86868913  1
  O  O16  1  0.06914396  0.79023570  0.85937966  1
  O  O17  1  0.20649881  0.20649881  0.41299662  1
  O  O18  1  0.93085604  0.20976430  0.14062034  1
  O  O19  1  0.35141697  0.79001847  0.14143443  1
  O  O20  1  0.79350119  0.79350119  0.58700338  1
  O  O21  1  0.79023570  0.06914396  0.85937966  1
  O  O22  1  0.20976430  0.93085604  0.14062034  1
  O  O23  1  0.79001847  0.35141697  0.14143443  1
  O  O24  1  0.20998153  0.35141697  0.56139850  1
  O  O25  1  0.93018909  0.06981091  -0.00000000  1
  O  O26  1  0.50000000  0.64497484  0.14497484  1
  O  O27  1  0.06981091  0.06981091  0.13962383  1
  O  O28  1  0.93105319  0.34766003  0.27871322  1
  O  O29  1  0.50000000  0.06605456  0.56605456  1
  O  O30  1  0.20649881  0.79350119  0.00000000  1
  O  O31  1  0.93018909  0.93018909  0.86037617  1
  O  O32  1  0.50000000  0.35502516  0.85502516  1
  O  O33  1  0.93105319  0.65233997  0.58339416  1
  O  O34  1  0.64858303  0.79001847  0.43860150  1
  O  O35  1  0.79001847  0.64858303  0.43860150  1
  O  O36  1  0.64497484  0.50000000  0.14497484  1
  O  O37  1  0.34766003  0.93105319  0.27871322  1
  O  O38  1  0.06894681  0.65233997  0.72128678  1
  O  O39  1  0.65233997  0.06894681  0.72128678  1
  O  O40  1  0.93394544  0.50000000  0.43394544  1
  O  O41  1  0.06894681  0.34766003  0.41660584  1
  O  O42  1  0.06981091  0.93018909  -0.00000000  1
  O  O43  1  0.93085604  0.79023570  0.72109274  1
  O  O44  1  0.35141697  0.20998153  0.56139850  1
  O  O45  1  0.79023570  0.93085604  0.72109274  1
  O  O46  1  0.50000000  0.93394544  0.43394544  1
  O  O47  1  0.06914396  0.20976430  0.27890726  1
  O  O48  1  0.65233997  0.93105319  0.58339416  1
  O  O49  1  0.79350119  0.20649881  -0.00000000  1
  O  O50  1  0.20998153  0.64858303  0.85856557  1
  O  O51  1  0.06605456  0.50000000  0.56605456  1
  O  O52  1  0.20976430  0.06914396  0.27890726  1
  O  O53  1  0.34766003  0.06894681  0.41660584  1
  O  O54  1  0.64858303  0.20998153  0.85856557  1
  O  O55  1  0.35502516  0.50000000  0.85502516  1
