# generated using pymatgen
data_Er2Te5O13
_symmetry_space_group_name_H-M   'P 1'
_cell_length_a   6.89874194
_cell_length_b   8.61884022
_cell_length_c   10.53316806
_cell_angle_alpha   88.69026499
_cell_angle_beta   86.75874520
_cell_angle_gamma   74.79048741
_symmetry_Int_Tables_number   1
_chemical_formula_structural   Er2Te5O13
_chemical_formula_sum   'Er4 Te10 O26'
_cell_volume   603.36835459
_cell_formula_units_Z   2
loop_
 _symmetry_equiv_pos_site_id
 _symmetry_equiv_pos_as_xyz
  1  'x, y, z'
loop_
 _atom_site_type_symbol
 _atom_site_label
 _atom_site_symmetry_multiplicity
 _atom_site_fract_x
 _atom_site_fract_y
 _atom_site_fract_z
 _atom_site_occupancy
  Er  Er0  1  0.55207624  0.52910116  0.17967045  1
  Er  Er1  1  0.99888737  0.73912222  0.23851965  1
  Er  Er2  1  0.44792376  0.47089884  0.82032955  1
  Er  Er3  1  0.00111263  0.26087778  0.76148035  1
  Te  Te4  1  0.15560469  0.80386313  0.63919025  1
  Te  Te5  1  0.27276365  0.39589681  0.48395456  1
  Te  Te6  1  0.70809768  0.12139323  0.02657495  1
  Te  Te7  1  0.56388139  0.09735721  0.69741818  1
  Te  Te8  1  0.87499971  0.64995784  0.89395762  1
  Te  Te9  1  0.72723635  0.60410319  0.51604544  1
  Te  Te10  1  0.43611861  0.90264279  0.30258182  1
  Te  Te11  1  0.29190232  0.87860677  0.97342505  1
  Te  Te12  1  0.84439531  0.19613687  0.36080975  1
  Te  Te13  1  0.12500029  0.35004216  0.10604238  1
  O  O14  1  0.66445862  0.48682196  0.38305997  1
  O  O15  1  0.04424402  0.35096735  0.56543756  1
  O  O16  1  0.65459270  0.01878338  0.87528162  1
  O  O17  1  0.06059525  0.81930511  0.03683324  1
  O  O18  1  0.87457330  0.50836328  0.10376683  1
  O  O19  1  0.31339989  0.73452338  0.28905452  1
  O  O20  1  0.45930580  0.19454489  0.51964171  1
  O  O21  1  0.06376104  0.26888840  0.27842549  1
  O  O22  1  0.32861636  0.22521691  0.77702642  1
  O  O23  1  0.33554138  0.51317804  0.61694003  1
  O  O24  1  0.93623896  0.73111160  0.72157451  1
  O  O25  1  0.12542670  0.49163672  0.89623317  1
  O  O26  1  0.66977288  0.26159174  0.22801913  1
  O  O27  1  0.67138364  0.77478309  0.22297358  1
  O  O28  1  0.76588955  0.50169758  0.81563374  1
  O  O29  1  0.46749434  0.67175309  0.99910157  1
  O  O30  1  0.54069420  0.80545511  0.48035829  1
  O  O31  1  0.93940475  0.18069489  0.96316676  1
  O  O32  1  0.34540730  0.98121662  0.12471838  1
  O  O33  1  0.23411045  0.49830242  0.18436626  1
  O  O34  1  0.93772994  0.98419618  0.30606548  1
  O  O35  1  0.06227006  0.01580382  0.69393452  1
  O  O36  1  0.68660011  0.26547662  0.71094548  1
  O  O37  1  0.53250566  0.32824691  0.00089843  1
  O  O38  1  0.33022712  0.73840826  0.77198087  1
  O  O39  1  0.95575598  0.64903265  0.43456244  1
