# generated using pymatgen
data_CdI2
_symmetry_space_group_name_H-M   'P 1'
_cell_length_a   4.28781170
_cell_length_b   4.28781124
_cell_length_c   85.88705985
_cell_angle_alpha   89.99999871
_cell_angle_beta   90.00000138
_cell_angle_gamma   119.99987785
_symmetry_Int_Tables_number   1
_chemical_formula_structural   CdI2
_chemical_formula_sum   'Cd12 I24'
_cell_volume   1367.50922907
_cell_formula_units_Z   12
loop_
 _symmetry_equiv_pos_site_id
 _symmetry_equiv_pos_as_xyz
  1  'x, y, z'
loop_
 _atom_site_type_symbol
 _atom_site_label
 _atom_site_symmetry_multiplicity
 _atom_site_fract_x
 _atom_site_fract_y
 _atom_site_fract_z
 _atom_site_occupancy
  Cd  Cd0  1  0.33333300  0.66666700  0.77087025  1
  Cd  Cd1  1  0.33333300  0.66666700  0.02077091  1
  Cd  Cd2  1  0.66666700  0.33333300  0.52077091  1
  Cd  Cd3  1  0.66666700  0.33333300  0.93670819  1
  Cd  Cd4  1  0.33333300  0.66666700  0.18820916  1
  Cd  Cd5  1  0.66666700  0.33333300  0.27087025  1
  Cd  Cd6  1  0.66666700  0.33333300  0.68820916  1
  Cd  Cd7  1  0.33333300  0.66666700  0.35349562  1
  Cd  Cd8  1  0.66666700  0.33333300  0.10499561  1
  Cd  Cd9  1  0.33333300  0.66666700  0.60499561  1
  Cd  Cd10  1  0.33333300  0.66666700  0.43670819  1
  Cd  Cd11  1  0.66666700  0.33333300  0.85349562  1
  I  I12  1  0.66666700  0.33333300  0.58492086  1
  I  I13  1  0.33333300  0.66666700  0.91664780  1
  I  I14  1  0.66666700  0.33333300  0.33352307  1
  I  I15  1  -0.00000000  0.00000000  0.29089056  1
  I  I16  1  -0.00000000  0.00000000  0.04086081  1
  I  I17  1  0.33333300  0.66666700  0.08492086  1
  I  I18  1  -0.00000000  0.00000000  0.95675360  1
  I  I19  1  -0.00000000  0.00000000  0.79089056  1
  I  I20  1  0.66666700  0.33333300  0.75081868  1
  I  I21  1  -0.00000000  0.00000000  0.54086081  1
  I  I22  1  -0.00000000  0.00000000  0.70817841  1
  I  I23  1  0.33333300  0.66666700  0.66824130  1
  I  I24  1  -0.00000000  0.00000000  0.87344416  1
  I  I25  1  -0.00000000  0.00000000  0.62503704  1
  I  I26  1  -0.00000000  0.00000000  0.45675360  1
  I  I27  1  0.33333300  0.66666700  0.50063297  1
  I  I28  1  0.66666700  0.33333300  0.41664780  1
  I  I29  1  0.33333300  0.66666700  0.83352307  1
  I  I30  1  -0.00000000  0.00000000  0.37344416  1
  I  I31  1  0.66666700  0.33333300  0.00063297  1
  I  I32  1  0.66666700  0.33333300  0.16824130  1
  I  I33  1  -0.00000000  0.00000000  0.20817841  1
  I  I34  1  0.33333300  0.66666700  0.25081868  1
  I  I35  1  -0.00000000  0.00000000  0.12503704  1
