# generated using pymatgen
data_Na3B6NO13
_symmetry_space_group_name_H-M   'P 1'
_cell_length_a   7.58051207
_cell_length_b   9.97824372
_cell_length_c   12.54738044
_cell_angle_alpha   90.00000000
_cell_angle_beta   90.00000000
_cell_angle_gamma   90.00000000
_symmetry_Int_Tables_number   1
_chemical_formula_structural   Na3B6NO13
_chemical_formula_sum   'Na12 B24 N4 O52'
_cell_volume   949.08632777
_cell_formula_units_Z   4
loop_
 _symmetry_equiv_pos_site_id
 _symmetry_equiv_pos_as_xyz
  1  'x, y, z'
loop_
 _atom_site_type_symbol
 _atom_site_label
 _atom_site_symmetry_multiplicity
 _atom_site_fract_x
 _atom_site_fract_y
 _atom_site_fract_z
 _atom_site_occupancy
  Na  Na0  1  0.88170216  0.25000000  0.71588670  1
  Na  Na1  1  0.50000000  0.50000000  -0.00000000  1
  Na  Na2  1  -0.00000000  0.00000000  0.50000000  1
  Na  Na3  1  -0.00000000  0.50000000  0.50000000  1
  Na  Na4  1  0.38170216  0.75000000  0.78411330  1
  Na  Na5  1  0.50000000  0.50000000  0.50000000  1
  Na  Na6  1  0.61829784  0.25000000  0.21588670  1
  Na  Na7  1  0.50000000  0.00000000  -0.00000000  1
  Na  Na8  1  -0.00000000  0.00000000  -0.00000000  1
  Na  Na9  1  -0.00000000  0.50000000  -0.00000000  1
  Na  Na10  1  0.50000000  0.00000000  0.50000000  1
  Na  Na11  1  0.11829784  0.75000000  0.28411330  1
  B  B12  1  0.72477137  0.75000000  0.49632411  1
  B  B13  1  0.47210923  0.98154493  0.25983196  1
  B  B14  1  0.97210923  0.01845507  0.24016804  1
  B  B15  1  0.02789077  0.51845507  0.75983196  1
  B  B16  1  0.55762528  0.75000000  0.31278481  1
  B  B17  1  0.22403319  0.12024900  0.33550487  1
  B  B18  1  0.97210923  0.48154493  0.24016804  1
  B  B19  1  0.05762528  0.25000000  0.18721519  1
  B  B20  1  0.27596681  0.37975100  0.83550487  1
  B  B21  1  0.77596681  0.87975100  0.66449513  1
  B  B22  1  0.44237472  0.25000000  0.68721519  1
  B  B23  1  0.22477137  0.25000000  0.00367589  1
  B  B24  1  0.94237472  0.75000000  0.81278481  1
  B  B25  1  0.77522863  0.75000000  0.99632411  1
  B  B26  1  0.47210923  0.51845507  0.25983196  1
  B  B27  1  0.27522863  0.25000000  0.50367589  1
  B  B28  1  0.72403319  0.62024900  0.16449513  1
  B  B29  1  0.72403319  0.87975100  0.16449513  1
  B  B30  1  0.52789077  0.48154493  0.74016804  1
  B  B31  1  0.52789077  0.01845507  0.74016804  1
  B  B32  1  0.02789077  0.98154493  0.75983196  1
  B  B33  1  0.27596681  0.12024900  0.83550487  1
  B  B34  1  0.22403319  0.37975100  0.33550487  1
  B  B35  1  0.77596681  0.62024900  0.66449513  1
  N  N36  1  0.21060013  0.75000000  0.55080515  1
  N  N37  1  0.71060013  0.25000000  0.94919485  1
  N  N38  1  0.28939987  0.75000000  0.05080515  1
  N  N39  1  0.78939987  0.25000000  0.44919485  1
  O  O40  1  0.38461040  0.09814992  0.27663901  1
  O  O41  1  0.09554532  0.48567764  0.32003241  1
  O  O42  1  0.88461040  0.90185008  0.22336099  1
  O  O43  1  0.23303100  0.85956482  0.08746857  1
  O  O44  1  0.90445468  0.98567764  0.67996759  1
  O  O45  1  0.44598705  0.86987293  0.32181315  1
  O  O46  1  0.40445468  0.48567764  0.82003241  1
  O  O47  1  0.44598705  0.63012707  0.32181315  1
  O  O48  1  0.23303100  0.64043518  0.08746857  1
  O  O49  1  0.26696900  0.85956482  0.58746857  1
  O  O50  1  0.76696900  0.14043518  0.91253143  1
  O  O51  1  0.25891980  0.36957358  0.45003131  1
  O  O52  1  0.90548418  0.25000000  0.52123595  1
  O  O53  1  0.94598705  0.36987293  0.17818685  1
  O  O54  1  0.94598705  0.13012707  0.17818685  1
  O  O55  1  0.74108020  0.63042642  0.54996869  1
  O  O56  1  0.55401295  0.36987293  0.67818685  1
  O  O57  1  0.38461040  0.40185008  0.27663901  1
  O  O58  1  0.75891980  0.86957358  0.04996869  1
  O  O59  1  0.74108020  0.86957358  0.54996869  1
  O  O60  1  0.75891980  0.63042642  0.04996869  1
  O  O61  1  0.73303100  0.35956482  0.41253143  1
  O  O62  1  0.88461040  0.59814992  0.22336099  1
  O  O63  1  0.85751259  0.75000000  0.70245405  1
  O  O64  1  0.80594885  0.75000000  0.89110362  1
  O  O65  1  0.76696900  0.35956482  0.91253143  1
  O  O66  1  0.90445468  0.51432236  0.67996759  1
  O  O67  1  0.35751259  0.25000000  0.79754595  1
  O  O68  1  0.05401295  0.86987293  0.82181315  1
  O  O69  1  0.24108020  0.36957358  0.95003131  1
  O  O70  1  0.59451582  0.25000000  0.02123595  1
  O  O71  1  0.11538960  0.40185008  0.77663901  1
  O  O72  1  0.09554532  0.01432236  0.32003241  1
  O  O73  1  0.14248741  0.25000000  0.29754595  1
  O  O74  1  0.61538960  0.59814992  0.72336099  1
  O  O75  1  0.24108020  0.13042642  0.95003131  1
  O  O76  1  0.40445468  0.01432236  0.82003241  1
  O  O77  1  0.05401295  0.63012707  0.82181315  1
  O  O78  1  0.11538960  0.09814992  0.77663901  1
  O  O79  1  0.40548418  0.75000000  0.97876405  1
  O  O80  1  0.69405115  0.75000000  0.39110362  1
  O  O81  1  0.55401295  0.13012707  0.67818685  1
  O  O82  1  0.25891980  0.13042642  0.45003131  1
  O  O83  1  0.09451582  0.75000000  0.47876405  1
  O  O84  1  0.64248741  0.75000000  0.20245405  1
  O  O85  1  0.59554532  0.98567764  0.17996759  1
  O  O86  1  0.30594885  0.25000000  0.60889638  1
  O  O87  1  0.73303100  0.14043518  0.41253143  1
  O  O88  1  0.26696900  0.64043518  0.58746857  1
  O  O89  1  0.61538960  0.90185008  0.72336099  1
  O  O90  1  0.59554532  0.51432236  0.17996759  1
  O  O91  1  0.19405115  0.25000000  0.10889638  1
