# generated using pymatgen
data_Na2CrNiF7
_symmetry_space_group_name_H-M   'P 1'
_cell_length_a   7.22675795
_cell_length_b   7.22675795
_cell_length_c   7.22675795
_cell_angle_alpha   120.86503853
_cell_angle_beta   118.65561519
_cell_angle_gamma   90.42620237
_symmetry_Int_Tables_number   1
_chemical_formula_structural   Na2CrNiF7
_chemical_formula_sum   'Na4 Cr2 Ni2 F14'
_cell_volume   267.71514246
_cell_formula_units_Z   2
loop_
 _symmetry_equiv_pos_site_id
 _symmetry_equiv_pos_as_xyz
  1  'x, y, z'
loop_
 _atom_site_type_symbol
 _atom_site_label
 _atom_site_symmetry_multiplicity
 _atom_site_fract_x
 _atom_site_fract_y
 _atom_site_fract_z
 _atom_site_occupancy
  Na  Na0  1  0.50000000  0.50000000  0.00000000  1
  Na  Na1  1  0.00000000  0.00000000  0.00000000  1
  Na  Na2  1  0.50000000  0.50000000  0.50000000  1
  Na  Na3  1  0.50000000  0.00000000  0.00000000  1
  Cr  Cr4  1  0.00000000  0.50000000  0.50000000  1
  Cr  Cr5  1  0.50000000  0.00000000  0.50000000  1
  Ni  Ni6  1  0.00000000  0.50000000  0.00000000  1
  Ni  Ni7  1  0.00000000  0.00000000  0.50000000  1
  F  F8  1  0.36134008  0.09116876  0.27017132  1
  F  F9  1  0.89159242  0.75000000  0.14159242  1
  F  F10  1  0.32183499  0.08442274  0.63771566  1
  F  F11  1  0.67816501  0.91557726  0.36228434  1
  F  F12  1  0.05329292  0.41557726  0.23741225  1
  F  F13  1  0.94670708  0.58442274  0.76258775  1
  F  F14  1  0.67900256  0.40883124  0.27017132  1
  F  F15  1  0.63865992  0.90883124  0.72982868  1
  F  F16  1  0.10840758  0.25000000  0.85840758  1
  F  F17  1  0.05329292  0.81588068  0.63771566  1
  F  F18  1  0.94670708  0.18411932  0.36228434  1
  F  F19  1  0.32183499  0.68411932  0.23741225  1
  F  F20  1  0.32099744  0.59116876  0.72982868  1
  F  F21  1  0.67816501  0.31588068  0.76258775  1
