# generated using pymatgen
data_CaU(MoO4)4
_symmetry_space_group_name_H-M   'P 1'
_cell_length_a   6.67439678
_cell_length_b   8.23762010
_cell_length_c   14.04687104
_cell_angle_alpha   54.52706532
_cell_angle_beta   90.00000000
_cell_angle_gamma   90.00000000
_symmetry_Int_Tables_number   1
_chemical_formula_structural   CaU(MoO4)4
_chemical_formula_sum   'Ca2 U2 Mo8 O32'
_cell_volume   628.96382707
_cell_formula_units_Z   2
loop_
 _symmetry_equiv_pos_site_id
 _symmetry_equiv_pos_as_xyz
  1  'x, y, z'
loop_
 _atom_site_type_symbol
 _atom_site_label
 _atom_site_symmetry_multiplicity
 _atom_site_fract_x
 _atom_site_fract_y
 _atom_site_fract_z
 _atom_site_occupancy
  Ca  Ca0  1  0.29893445  0.50000000  0.25000000  1
  Ca  Ca1  1  0.70106555  0.50000000  0.75000000  1
  U  U2  1  0.70064357  -0.00000000  0.75000000  1
  U  U3  1  0.29935643  -0.00000000  0.25000000  1
  Mo  Mo4  1  0.83090098  0.79722540  0.40708233  1
  Mo  Mo5  1  0.16909902  0.20277460  0.59291767  1
  Mo  Mo6  1  0.82914840  0.30026949  0.40381650  1
  Mo  Mo7  1  0.83090098  0.20277460  0.09291767  1
  Mo  Mo8  1  0.16909902  0.79722540  0.90708233  1
  Mo  Mo9  1  0.17085160  0.69973051  0.59618350  1
  Mo  Mo10  1  0.82914840  0.69973051  0.09618350  1
  Mo  Mo11  1  0.17085160  0.30026949  0.90381650  1
  O  O12  1  0.15063912  0.18620483  0.06673031  1
  O  O13  1  0.15293207  0.09395656  0.90279305  1
  O  O14  1  0.15063912  0.81379517  0.43326969  1
  O  O15  1  0.41877143  0.63640733  0.62389700  1
  O  O16  1  0.58122857  0.36359267  0.37610300  1
  O  O17  1  0.14837538  0.31307096  0.43796116  1
  O  O18  1  0.84480741  0.59501789  0.40219448  1
  O  O19  1  0.84936088  0.18620483  0.56673031  1
  O  O20  1  0.93353690  0.50000000  0.25000000  1
  O  O21  1  0.84706793  0.90604344  0.09720695  1
  O  O22  1  0.41877143  0.36359267  0.87610300  1
  O  O23  1  0.94119377  -0.00000000  0.25000000  1
  O  O24  1  0.15293207  0.90604344  0.59720695  1
  O  O25  1  0.42128085  0.87112751  0.87179276  1
  O  O26  1  0.05880623  -0.00000000  0.75000000  1
  O  O27  1  0.15519259  0.40498211  0.59780552  1
  O  O28  1  0.06646310  0.50000000  0.75000000  1
  O  O29  1  0.85162462  0.68692904  0.56203884  1
  O  O30  1  0.69943250  0.78205275  0.74751567  1
  O  O31  1  0.30056750  0.78205275  0.24751567  1
  O  O32  1  0.14837538  0.68692904  0.06203884  1
  O  O33  1  0.85162462  0.31307096  0.93796116  1
  O  O34  1  0.84706793  0.09395656  0.40279305  1
  O  O35  1  0.57871915  0.12887249  0.12820724  1
  O  O36  1  0.84936088  0.81379517  0.93326969  1
  O  O37  1  0.69943250  0.21794725  0.75248433  1
  O  O38  1  0.84480741  0.40498211  0.09780552  1
  O  O39  1  0.57871915  0.87112751  0.37179276  1
  O  O40  1  0.42128085  0.12887249  0.62820724  1
  O  O41  1  0.15519259  0.59501789  0.90219448  1
  O  O42  1  0.30056750  0.21794725  0.25248433  1
  O  O43  1  0.58122857  0.63640733  0.12389700  1
