# generated using pymatgen
data_Na2B2Se7
_symmetry_space_group_name_H-M   'P 1'
_cell_length_a   8.21193191
_cell_length_b   8.21193191
_cell_length_c   11.93002760
_cell_angle_alpha   63.64082363
_cell_angle_beta   63.64082363
_cell_angle_gamma   48.57720600
_symmetry_Int_Tables_number   1
_chemical_formula_structural   Na2B2Se7
_chemical_formula_sum   'Na4 B4 Se14'
_cell_volume   526.85118668
_cell_formula_units_Z   2
loop_
 _symmetry_equiv_pos_site_id
 _symmetry_equiv_pos_as_xyz
  1  'x, y, z'
loop_
 _atom_site_type_symbol
 _atom_site_label
 _atom_site_symmetry_multiplicity
 _atom_site_fract_x
 _atom_site_fract_y
 _atom_site_fract_z
 _atom_site_occupancy
  Na  Na0  1  0.89117693  0.32621461  0.95883921  1
  Na  Na1  1  0.67378539  0.10882307  0.54116079  1
  Na  Na2  1  0.10882307  0.67378539  0.04116079  1
  Na  Na3  1  0.32621461  0.89117693  0.45883921  1
  B  B4  1  0.60091455  0.16379920  0.85006371  1
  B  B5  1  0.83620080  0.39908545  0.64993629  1
  B  B6  1  0.39908545  0.83620080  0.14993629  1
  B  B7  1  0.16379920  0.60091455  0.35006371  1
  Se  Se8  1  0.52133026  0.47866974  0.75000000  1
  Se  Se9  1  0.47866974  0.52133026  0.25000000  1
  Se  Se10  1  0.44052116  0.80410845  0.97786977  1
  Se  Se11  1  0.19589155  0.55947884  0.52213023  1
  Se  Se12  1  0.55947884  0.19589155  0.02213023  1
  Se  Se13  1  0.80410845  0.44052116  0.47786977  1
  Se  Se14  1  0.37521455  0.14892042  0.83172188  1
  Se  Se15  1  0.85107958  0.62478545  0.66827812  1
  Se  Se16  1  0.62478545  0.85107958  0.16827812  1
  Se  Se17  1  0.14892042  0.37521455  0.33172188  1
  Se  Se18  1  0.91182276  0.91434649  0.77558439  1
  Se  Se19  1  0.08565351  0.08817724  0.72441561  1
  Se  Se20  1  0.08817724  0.08565351  0.22441561  1
  Se  Se21  1  0.91434649  0.91182276  0.27558439  1
