# generated using pymatgen
data_CdSO4
_symmetry_space_group_name_H-M   'P 1'
_cell_length_a   4.70415307
_cell_length_b   4.73844391
_cell_length_c   6.58548704
_cell_angle_alpha   90.00000000
_cell_angle_beta   90.00000000
_cell_angle_gamma   90.00000000
_symmetry_Int_Tables_number   1
_chemical_formula_structural   CdSO4
_chemical_formula_sum   'Cd2 S2 O8'
_cell_volume   146.79291289
_cell_formula_units_Z   2
loop_
 _symmetry_equiv_pos_site_id
 _symmetry_equiv_pos_as_xyz
  1  'x, y, z'
loop_
 _atom_site_type_symbol
 _atom_site_label
 _atom_site_symmetry_multiplicity
 _atom_site_fract_x
 _atom_site_fract_y
 _atom_site_fract_z
 _atom_site_occupancy
  Cd  Cd0  1  0.86028300  0.75081396  0.50000000  1
  Cd  Cd1  1  0.13971700  0.25081396  -0.00000000  1
  S  S2  1  0.33488297  0.23082870  0.50000000  1
  S  S3  1  0.66511703  0.73082870  -0.00000000  1
  O  O4  1  0.80560372  0.60116467  0.82117670  1
  O  O5  1  0.19439628  0.10116467  0.67882330  1
  O  O6  1  0.19439628  0.10116467  0.32117670  1
  O  O7  1  0.80560372  0.60116467  0.17882330  1
  O  O8  1  0.35877359  0.67150435  -0.00000000  1
  O  O9  1  0.64122641  0.17150435  0.50000000  1
  O  O10  1  0.69917817  0.04012465  -0.00000000  1
  O  O11  1  0.30082183  0.54012465  0.50000000  1
