# generated using pymatgen
data_K3GaSe3
_symmetry_space_group_name_H-M   'P 1'
_cell_length_a   12.97019812
_cell_length_b   8.07514617
_cell_length_c   10.56523288
_cell_angle_alpha   52.42089703
_cell_angle_beta   90.00000000
_cell_angle_gamma   90.00000000
_symmetry_Int_Tables_number   1
_chemical_formula_structural   K3GaSe3
_chemical_formula_sum   'K12 Ga4 Se12'
_cell_volume   876.96445573
_cell_formula_units_Z   4
loop_
 _symmetry_equiv_pos_site_id
 _symmetry_equiv_pos_as_xyz
  1  'x, y, z'
loop_
 _atom_site_type_symbol
 _atom_site_label
 _atom_site_symmetry_multiplicity
 _atom_site_fract_x
 _atom_site_fract_y
 _atom_site_fract_z
 _atom_site_occupancy
  K  K0  1  0.90906554  0.33875897  0.39537357  1
  K  K1  1  0.40906554  0.66124103  0.10462643  1
  K  K2  1  0.09093446  0.66124103  0.60462643  1
  K  K3  1  0.59093446  0.33875897  0.89537357  1
  K  K4  1  0.18978308  0.13140146  0.58375119  1
  K  K5  1  0.68978308  0.86859854  0.91624881  1
  K  K6  1  0.81021692  0.86859854  0.41624881  1
  K  K7  1  0.31021692  0.13140146  0.08375119  1
  K  K8  1  0.62175157  0.37412938  0.47392151  1
  K  K9  1  0.12175157  0.62587062  0.02607849  1
  K  K10  1  0.37824843  0.62587062  0.52607849  1
  K  K11  1  0.87824843  0.37412938  0.97392151  1
  Ga  Ga12  1  0.93870767  0.06528187  0.83544016  1
  Ga  Ga13  1  0.43870767  0.93471813  0.66455984  1
  Ga  Ga14  1  0.06129233  0.93471813  0.16455984  1
  Ga  Ga15  1  0.56129233  0.06528187  0.33544016  1
  Se  Se16  1  0.39084107  0.15887973  0.37600219  1
  Se  Se17  1  0.89084107  0.84112027  0.12399781  1
  Se  Se18  1  0.60915893  0.84112027  0.62399781  1
  Se  Se19  1  0.10915893  0.15887973  0.87600219  1
  Se  Se20  1  0.68023547  0.35048104  0.18710487  1
  Se  Se21  1  0.18023547  0.64951896  0.31289513  1
  Se  Se22  1  0.31976453  0.64951896  0.81289513  1
  Se  Se23  1  0.81976453  0.35048104  0.68710487  1
  Se  Se24  1  0.54918201  0.87170418  0.23449345  1
  Se  Se25  1  0.04918201  0.12829582  0.26550655  1
  Se  Se26  1  0.45081799  0.12829582  0.76550655  1
  Se  Se27  1  0.95081799  0.87170418  0.73449345  1
