# generated using pymatgen
data_LaSiO3F
_symmetry_space_group_name_H-M   'P 1'
_cell_length_a   7.06389951
_cell_length_b   7.06389951
_cell_length_c   10.89756642
_cell_angle_alpha   90.00000000
_cell_angle_beta   90.00000000
_cell_angle_gamma   120.00000381
_symmetry_Int_Tables_number   1
_chemical_formula_structural   LaSiO3F
_chemical_formula_sum   'La6 Si6 O18 F6'
_cell_volume   470.92219988
_cell_formula_units_Z   6
loop_
 _symmetry_equiv_pos_site_id
 _symmetry_equiv_pos_as_xyz
  1  'x, y, z'
loop_
 _atom_site_type_symbol
 _atom_site_label
 _atom_site_symmetry_multiplicity
 _atom_site_fract_x
 _atom_site_fract_y
 _atom_site_fract_z
 _atom_site_occupancy
  La  La0  1  0.64410930  1.00000000  -0.00000000  1
  La  La1  1  0.35589070  0.35589070  0.50000000  1
  La  La2  1  1.00000000  0.64410930  0.50000000  1
  La  La3  1  1.00000000  0.64410930  -0.00000000  1
  La  La4  1  0.35589070  0.35589070  -0.00000000  1
  La  La5  1  0.64410930  1.00000000  0.50000000  1
  Si  Si6  1  0.27260524  0.04690026  0.25000000  1
  Si  Si7  1  0.77429502  0.72739476  0.25000000  1
  Si  Si8  1  0.95309974  0.22570498  0.25000000  1
  Si  Si9  1  0.22570498  0.95309974  0.75000000  1
  Si  Si10  1  0.72739476  0.77429502  0.75000000  1
  Si  Si11  1  0.04690026  0.27260524  0.75000000  1
  O  O12  1  0.19380072  0.23525701  0.25000000  1
  O  O13  1  0.04145629  0.80619928  0.25000000  1
  O  O14  1  0.76474299  0.95854371  0.25000000  1
  O  O15  1  0.95854371  0.76474299  0.75000000  1
  O  O16  1  0.80619928  0.04145629  0.75000000  1
  O  O17  1  0.23525701  0.19380072  0.75000000  1
  O  O18  1  0.39690249  0.07740314  0.12317258  1
  O  O19  1  0.68050065  0.60309751  0.37682742  1
  O  O20  1  0.92259686  0.31949935  0.37682742  1
  O  O21  1  0.92259686  0.31949935  0.12317258  1
  O  O22  1  0.68050065  0.60309751  0.12317258  1
  O  O23  1  0.31949935  0.92259686  0.87682742  1
  O  O24  1  0.60309751  0.68050065  0.87682742  1
  O  O25  1  0.07740314  0.39690249  0.87682742  1
  O  O26  1  0.39690249  0.07740314  0.37682742  1
  O  O27  1  0.07740314  0.39690249  0.62317258  1
  O  O28  1  0.31949935  0.92259686  0.62317258  1
  O  O29  1  0.60309751  0.68050065  0.62317258  1
  F  F30  1  -0.00000000  -0.00000000  -0.00000000  1
  F  F31  1  -0.00000000  -0.00000000  0.50000000  1
  F  F32  1  0.33333300  0.66666700  0.07493456  1
  F  F33  1  0.33333300  0.66666700  0.42506544  1
  F  F34  1  0.66666700  0.33333300  0.92506544  1
  F  F35  1  0.66666700  0.33333300  0.57493456  1
