# generated using pymatgen
data_Cs3AlAs2
_symmetry_space_group_name_H-M   'P 1'
_cell_length_a   8.92164164
_cell_length_b   11.52907092
_cell_length_c   19.59059324
_cell_angle_alpha   80.12736915
_cell_angle_beta   90.00000000
_cell_angle_gamma   90.00000000
_symmetry_Int_Tables_number   1
_chemical_formula_structural   Cs3AlAs2
_chemical_formula_sum   'Cs24 Al8 As16'
_cell_volume   1985.21368047
_cell_formula_units_Z   8
loop_
 _symmetry_equiv_pos_site_id
 _symmetry_equiv_pos_as_xyz
  1  'x, y, z'
loop_
 _atom_site_type_symbol
 _atom_site_label
 _atom_site_symmetry_multiplicity
 _atom_site_fract_x
 _atom_site_fract_y
 _atom_site_fract_z
 _atom_site_occupancy
  Cs  Cs0  1  0.56949088  0.62432543  0.61024206  1
  Cs  Cs1  1  0.97702568  0.84957125  0.46804634  1
  Cs  Cs2  1  0.55694987  0.08283923  0.25630599  1
  Cs  Cs3  1  0.58792069  0.26213395  0.57804719  1
  Cs  Cs4  1  0.05694987  0.91716077  0.24369401  1
  Cs  Cs5  1  0.38300593  0.70663400  0.16138774  1
  Cs  Cs6  1  0.41207931  0.73786605  0.42195281  1
  Cs  Cs7  1  0.25803561  0.36094824  0.71165841  1
  Cs  Cs8  1  0.75803561  0.63905176  0.78834159  1
  Cs  Cs9  1  0.74196439  0.63905176  0.28834159  1
  Cs  Cs10  1  0.52297432  0.84957125  0.96804634  1
  Cs  Cs11  1  0.11699407  0.70663400  0.66138774  1
  Cs  Cs12  1  0.94305013  0.08283923  0.75630599  1
  Cs  Cs13  1  0.61699407  0.29336600  0.83861226  1
  Cs  Cs14  1  0.88300593  0.29336600  0.33861226  1
  Cs  Cs15  1  0.08792069  0.73786605  0.92195281  1
  Cs  Cs16  1  0.43050912  0.37567457  0.38975794  1
  Cs  Cs17  1  0.06949088  0.37567457  0.88975794  1
  Cs  Cs18  1  0.93050912  0.62432543  0.11024206  1
  Cs  Cs19  1  0.91207931  0.26213395  0.07804719  1
  Cs  Cs20  1  0.24196439  0.36094824  0.21165841  1
  Cs  Cs21  1  0.02297432  0.15042875  0.53195366  1
  Cs  Cs22  1  0.44305013  0.91716077  0.74369401  1
  Cs  Cs23  1  0.47702568  0.15042875  0.03195366  1
  Al  Al24  1  0.61272058  0.95615187  0.55416896  1
  Al  Al25  1  0.38727942  0.04384813  0.44583104  1
  Al  Al26  1  0.94626354  0.46318710  0.57244377  1
  Al  Al27  1  0.05373646  0.53681290  0.42755623  1
  Al  Al28  1  0.88727942  0.95615187  0.05416896  1
  Al  Al29  1  0.44626354  0.53681290  0.92755623  1
  Al  Al30  1  0.55373646  0.46318710  0.07244377  1
  Al  Al31  1  0.11272058  0.04384813  0.94583104  1
  As  As32  1  0.84085057  0.05669819  0.93639037  1
  As  As33  1  0.20925828  0.10363548  0.35951276  1
  As  As34  1  0.70925828  0.89636452  0.14048724  1
  As  As35  1  0.29366540  0.49126161  0.03229692  1
  As  As36  1  0.35869669  0.59740367  0.81334809  1
  As  As37  1  0.65914943  0.05669819  0.43639037  1
  As  As38  1  0.79366540  0.50873839  0.46770308  1
  As  As39  1  0.64130331  0.40259633  0.18665191  1
  As  As40  1  0.15914943  0.94330181  0.06360963  1
  As  As41  1  0.29074172  0.10363548  0.85951276  1
  As  As42  1  0.34085057  0.94330181  0.56360963  1
  As  As43  1  0.85869669  0.40259633  0.68665191  1
  As  As44  1  0.14130331  0.59740367  0.31334809  1
  As  As45  1  0.79074172  0.89636452  0.64048724  1
  As  As46  1  0.70633460  0.50873839  0.96770308  1
  As  As47  1  0.20633460  0.49126161  0.53229692  1
