# generated using pymatgen
data_CsMnF3
_symmetry_space_group_name_H-M   'P 1'
_cell_length_a   6.21865967
_cell_length_b   6.21865968
_cell_length_c   15.07914490
_cell_angle_alpha   90.00000275
_cell_angle_beta   89.99999592
_cell_angle_gamma   119.99962630
_symmetry_Int_Tables_number   1
_chemical_formula_structural   CsMnF3
_chemical_formula_sum   'Cs6 Mn6 F18'
_cell_volume   505.01300437
_cell_formula_units_Z   6
loop_
 _symmetry_equiv_pos_site_id
 _symmetry_equiv_pos_as_xyz
  1  'x, y, z'
loop_
 _atom_site_type_symbol
 _atom_site_label
 _atom_site_symmetry_multiplicity
 _atom_site_fract_x
 _atom_site_fract_y
 _atom_site_fract_z
 _atom_site_occupancy
  Cs  Cs0  1  0.00000015  -0.00000010  0.25000097  1
  Cs  Cs1  1  0.00000004  0.00000003  0.74999896  1
  Cs  Cs2  1  0.33333319  0.66666697  0.09725367  1
  Cs  Cs3  1  0.66666686  0.33333308  0.59725258  1
  Cs  Cs4  1  0.66666689  0.33333298  0.90274396  1
  Cs  Cs5  1  0.33333313  0.66666683  0.40274970  1
  Mn  Mn6  1  0.00000007  0.00000004  0.99999873  1
  Mn  Mn7  1  0.33333293  0.66666679  0.65161511  1
  Mn  Mn8  1  0.66666700  0.33333299  0.15161367  1
  Mn  Mn9  1  0.66666710  0.33333312  0.34838568  1
  Mn  Mn10  1  0.33333316  0.66666698  0.84838534  1
  Mn  Mn11  1  0.00000003  -0.00000014  0.50000108  1
  F  F12  1  0.33082680  0.16541376  0.07918829  1
  F  F13  1  0.83458696  0.16541296  0.42081186  1
  F  F14  1  0.83458644  0.66917284  0.42081188  1
  F  F15  1  0.33082713  0.16541341  0.42081187  1
  F  F16  1  0.66917382  0.83458690  0.92080900  1
  F  F17  1  0.16541398  0.33082670  0.57919021  1
  F  F18  1  0.52186572  0.04373009  0.25000020  1
  F  F19  1  0.47813480  0.52186529  0.74999970  1
  F  F20  1  0.04372877  0.52186490  0.74999973  1
  F  F21  1  0.95627004  0.47813439  0.25000017  1
  F  F22  1  0.52186594  0.47813399  0.25000022  1
  F  F23  1  0.47813508  0.95627124  0.74999968  1
  F  F24  1  0.83458632  0.66917326  0.07918827  1
  F  F25  1  0.16541326  0.83458681  0.57919013  1
  F  F26  1  0.66917285  0.83458617  0.57919017  1
  F  F27  1  0.16541384  0.33082634  0.92080900  1
  F  F28  1  0.83458702  0.16541310  0.07918823  1
  F  F29  1  0.16541266  0.83458729  0.92080894  1
