# generated using pymatgen
data_K(TeO3)2
_symmetry_space_group_name_H-M   'P 1'
_cell_length_a   7.18772652
_cell_length_b   7.18773011
_cell_length_c   12.13484431
_cell_angle_alpha   75.26327575
_cell_angle_beta   75.26342222
_cell_angle_gamma   60.58033544
_symmetry_Int_Tables_number   1
_chemical_formula_structural   K(TeO3)2
_chemical_formula_sum   'K4 Te8 O24'
_cell_volume   521.84871321
_cell_formula_units_Z   4
loop_
 _symmetry_equiv_pos_site_id
 _symmetry_equiv_pos_as_xyz
  1  'x, y, z'
loop_
 _atom_site_type_symbol
 _atom_site_label
 _atom_site_symmetry_multiplicity
 _atom_site_fract_x
 _atom_site_fract_y
 _atom_site_fract_z
 _atom_site_occupancy
  K  K0  1  0.55648954  0.55649343  0.31311720  1
  K  K1  1  0.44351121  0.44352894  0.68667374  1
  K  K2  1  0.90826495  0.90825702  0.19360536  1
  K  K3  1  0.09168031  0.09172619  0.80646325  1
  Te  Te4  1  0.00003114  0.00001638  0.50000812  1
  Te  Te5  1  0.26131277  0.26133019  0.26088453  1
  Te  Te6  1  0.49998039  0.49998289  -0.00000373  1
  Te  Te7  1  0.73866630  0.73868625  0.73912617  1
  Te  Te8  1  0.50001035  -0.00001307  0.49999813  1
  Te  Te9  1  -0.00000374  0.49999624  0.00000771  1
  Te  Te10  1  0.49998590  -0.00000589  0.00000513  1
  Te  Te11  1  -0.00000125  0.49998628  0.50000740  1
  O  O12  1  0.99473593  0.99471920  0.65077813  1
  O  O13  1  0.25988735  0.25986417  0.55561346  1
  O  O14  1  0.19980548  0.19980826  0.99110009  1
  O  O15  1  0.80017399  0.80017749  0.00890947  1
  O  O16  1  0.91273770  0.31838973  0.45874876  1
  O  O17  1  0.99214503  0.53678274  0.84227696  1
  O  O18  1  0.68163631  0.08727546  0.54127444  1
  O  O19  1  0.14533511  0.52277864  0.34501156  1
  O  O20  1  0.08728759  0.68161903  0.54127169  1
  O  O21  1  0.22218084  0.60065962  0.95782033  1
  O  O22  1  0.47725042  0.85468388  0.65498814  1
  O  O23  1  0.46322869  0.00781748  0.15773148  1
  O  O24  1  0.39932389  0.77779355  0.04218232  1
  O  O25  1  0.58470723  0.58471285  0.84030007  1
  O  O26  1  0.53676789  0.99216181  0.84227810  1
  O  O27  1  0.60064912  0.22219102  0.95781718  1
  O  O28  1  0.74016480  0.74014595  0.44440722  1
  O  O29  1  0.85469414  0.47724756  0.65498901  1
  O  O30  1  0.41527814  0.41528111  0.15969776  1
  O  O31  1  0.00781429  0.46322783  0.15773080  1
  O  O32  1  0.77778693  0.39932963  0.04218492  1
  O  O33  1  0.52279170  0.14532781  0.34501135  1
  O  O34  1  0.00529013  0.00527886  0.34923931  1
  O  O35  1  0.31840045  0.91273744  0.45874743  1
