# generated using pymatgen
data_CsSbS2
_symmetry_space_group_name_H-M   'P 1'
_cell_length_a   7.14592113
_cell_length_b   7.73647956
_cell_length_c   9.93258973
_cell_angle_alpha   90.00000000
_cell_angle_beta   90.00000000
_cell_angle_gamma   102.13707007
_symmetry_Int_Tables_number   1
_chemical_formula_structural   CsSbS2
_chemical_formula_sum   'Cs4 Sb4 S8'
_cell_volume   536.84183488
_cell_formula_units_Z   4
loop_
 _symmetry_equiv_pos_site_id
 _symmetry_equiv_pos_as_xyz
  1  'x, y, z'
loop_
 _atom_site_type_symbol
 _atom_site_label
 _atom_site_symmetry_multiplicity
 _atom_site_fract_x
 _atom_site_fract_y
 _atom_site_fract_z
 _atom_site_occupancy
  Cs  Cs0  1  0.21198612  0.34749939  0.42976159  1
  Cs  Cs1  1  0.71198612  0.34749939  0.07023841  1
  Cs  Cs2  1  0.78801388  0.65250061  0.57023841  1
  Cs  Cs3  1  0.28801388  0.65250061  0.92976159  1
  Sb  Sb4  1  0.85839031  0.90492623  0.16582022  1
  Sb  Sb5  1  0.14160969  0.09507377  0.83417978  1
  Sb  Sb6  1  0.35839031  0.90492623  0.33417978  1
  Sb  Sb7  1  0.64160969  0.09507377  0.66582022  1
  S  S8  1  0.45194632  0.30759241  0.74502814  1
  S  S9  1  0.04805368  0.69240759  0.24502714  1
  S  S10  1  0.30353267  0.81500617  0.56323380  1
  S  S11  1  0.19646733  0.18499383  0.06323380  1
  S  S12  1  0.95194632  0.30759241  0.75497186  1
  S  S13  1  0.54805368  0.69240759  0.25497186  1
  S  S14  1  0.80353267  0.81500617  0.93676620  1
  S  S15  1  0.69646733  0.18499383  0.43676620  1
