# generated using pymatgen
data_K2Cr2O7
_symmetry_space_group_name_H-M   'P 1'
_cell_length_a   7.34847523
_cell_length_b   7.40038592
_cell_length_c   13.35473843
_cell_angle_alpha   95.43252355
_cell_angle_beta   98.13631801
_cell_angle_gamma   90.79847909
_symmetry_Int_Tables_number   1
_chemical_formula_structural   K2Cr2O7
_chemical_formula_sum   'K8 Cr8 O28'
_cell_volume   715.43649273
_cell_formula_units_Z   4
loop_
 _symmetry_equiv_pos_site_id
 _symmetry_equiv_pos_as_xyz
  1  'x, y, z'
loop_
 _atom_site_type_symbol
 _atom_site_label
 _atom_site_symmetry_multiplicity
 _atom_site_fract_x
 _atom_site_fract_y
 _atom_site_fract_z
 _atom_site_occupancy
  K  K0  1  0.10873040  0.65859389  0.64098920  1
  K  K1  1  0.89126960  0.34140611  0.35901080  1
  K  K2  1  0.25203489  0.76068521  0.34573672  1
  K  K3  1  0.74796511  0.23931479  0.65426328  1
  K  K4  1  0.66167814  0.91605202  0.15916148  1
  K  K5  1  0.33832186  0.08394798  0.84083852  1
  K  K6  1  0.69105461  0.65572638  0.85954753  1
  K  K7  1  0.30894539  0.34427362  0.14045247  1
  Cr  Cr8  1  0.59358548  0.77447877  0.60537826  1
  Cr  Cr9  1  0.40641452  0.22552123  0.39462174  1
  Cr  Cr10  1  0.79602842  0.81247412  0.41257067  1
  Cr  Cr11  1  0.20397158  0.18752588  0.58742933  1
  Cr  Cr12  1  0.81876290  0.42746868  0.11223257  1
  Cr  Cr13  1  0.18123710  0.57253132  0.88776743  1
  Cr  Cr14  1  0.81151898  0.15293378  0.91693191  1
  Cr  Cr15  1  0.18848102  0.84706622  0.08306809  1
  O  O16  1  0.72383337  0.61534670  0.64793449  1
  O  O17  1  0.27616663  0.38465330  0.35206551  1
  O  O18  1  0.55712116  0.91609655  0.70013782  1
  O  O19  1  0.44287884  0.08390345  0.29986218  1
  O  O20  1  0.40256003  0.68987260  0.54369181  1
  O  O21  1  0.59743997  0.31012740  0.45630819  1
  O  O22  1  0.70712819  0.89855869  0.52379586  1
  O  O23  1  0.29287181  0.10144131  0.47620414  1
  O  O24  1  0.96523239  0.68166485  0.44513606  1
  O  O25  1  0.03476761  0.31833515  0.55486394  1
  O  O26  1  0.87051056  0.97842195  0.35768571  1
  O  O27  1  0.12948944  0.02157805  0.64231429  1
  O  O28  1  0.63875336  0.69632328  0.33553937  1
  O  O29  1  0.36124664  0.30367672  0.66446063  1
  O  O30  1  0.68788247  0.29701148  0.16478353  1
  O  O31  1  0.31211753  0.70298852  0.83521647  1
  O  O32  1  0.98054251  0.51835375  0.19776409  1
  O  O33  1  0.01945749  0.48164625  0.80223591  1
  O  O34  1  0.69840997  0.58054596  0.05771175  1
  O  O35  1  0.30159003  0.41945404  0.94228825  1
  O  O36  1  0.92778747  0.29358269  0.02258491  1
  O  O37  1  0.07221253  0.70641731  0.97741509  1
  O  O38  1  0.69094980  0.99707879  0.95714269  1
  O  O39  1  0.30905020  0.00292121  0.04285731  1
  O  O40  1  0.95888847  0.06243071  0.85042351  1
  O  O41  1  0.04111153  0.93756929  0.14957649  1
  O  O42  1  0.67318069  0.27831804  0.84961150  1
  O  O43  1  0.32681931  0.72168196  0.15038850  1
