# generated using pymatgen
data_KSbF6
_symmetry_space_group_name_H-M   'P 1'
_cell_length_a   8.74252884
_cell_length_b   8.74252415
_cell_length_c   8.74250198
_cell_angle_alpha   109.47127623
_cell_angle_beta   109.47113903
_cell_angle_gamma   109.47133352
_symmetry_Int_Tables_number   1
_chemical_formula_structural   KSbF6
_chemical_formula_sum   'K4 Sb4 F24'
_cell_volume   514.38381799
_cell_formula_units_Z   4
loop_
 _symmetry_equiv_pos_site_id
 _symmetry_equiv_pos_as_xyz
  1  'x, y, z'
loop_
 _atom_site_type_symbol
 _atom_site_label
 _atom_site_symmetry_multiplicity
 _atom_site_fract_x
 _atom_site_fract_y
 _atom_site_fract_z
 _atom_site_occupancy
  K  K0  1  0.50000002  0.00000006  0.50000042  1
  K  K1  1  -0.00000001  0.49999982  0.50000015  1
  K  K2  1  -0.00000066  -0.00000037  -0.00000028  1
  K  K3  1  0.49999880  0.49999941  -0.00000065  1
  Sb  Sb4  1  0.49999989  -0.00000124  -0.00000194  1
  Sb  Sb5  1  0.00000087  0.00000155  0.50000230  1
  Sb  Sb6  1  0.50000062  0.50000164  0.50000050  1
  Sb  Sb7  1  -0.00000018  0.49999835  -0.00000163  1
  F  F8  1  0.66747300  0.20059866  0.24979339  1
  F  F9  1  0.96687514  0.04919426  0.29940330  1
  F  F10  1  0.41767930  0.25020635  0.45080443  1
  F  F11  1  0.25020740  0.45080456  0.41767970  1
  F  F12  1  0.08231931  0.53312458  0.83252659  1
  F  F13  1  0.24979149  0.66747187  0.20059713  1
  F  F14  1  0.20059689  0.24979173  0.66747234  1
  F  F15  1  0.29940403  0.96687506  0.04919384  1
  F  F16  1  0.53312472  0.83252694  0.08231960  1
  F  F17  1  0.45080496  0.41767983  0.25020582  1
  F  F18  1  0.83252883  0.08231939  0.53312541  1
  F  F19  1  0.04919327  0.29940433  0.96687480  1
  F  F20  1  0.33252754  0.79940172  0.75020690  1
  F  F21  1  0.03312541  0.95080657  0.70059736  1
  F  F22  1  0.58232061  0.74979345  0.54919572  1
  F  F23  1  0.74979261  0.54919600  0.58232063  1
  F  F24  1  0.91768037  0.46687486  0.16747349  1
  F  F25  1  0.75020868  0.33252775  0.79940270  1
  F  F26  1  0.79940274  0.75020824  0.33252806  1
  F  F27  1  0.70059536  0.03312472  0.95080582  1
  F  F28  1  0.46687555  0.16747217  0.91767944  1
  F  F29  1  0.54919504  0.58232063  0.74979429  1
  F  F30  1  0.16747201  0.91768121  0.46687563  1
  F  F31  1  0.95080636  0.70059590  0.03312479  1
