# generated using pymatgen
data_Cs2Si2O5
_symmetry_space_group_name_H-M   'P 1'
_cell_length_a   8.67376012
_cell_length_b   10.10213619
_cell_length_c   18.54051276
_cell_angle_alpha   57.27222337
_cell_angle_beta   90.00000000
_cell_angle_gamma   90.00000000
_symmetry_Int_Tables_number   1
_chemical_formula_structural   Cs2Si2O5
_chemical_formula_sum   'Cs16 Si16 O40'
_cell_volume   1366.67992035
_cell_formula_units_Z   8
loop_
 _symmetry_equiv_pos_site_id
 _symmetry_equiv_pos_as_xyz
  1  'x, y, z'
loop_
 _atom_site_type_symbol
 _atom_site_label
 _atom_site_symmetry_multiplicity
 _atom_site_fract_x
 _atom_site_fract_y
 _atom_site_fract_z
 _atom_site_occupancy
  Cs  Cs0  1  0.13250304  0.18073315  0.41036611  1
  Cs  Cs1  1  0.09812622  0.73496672  0.41791203  1
  Cs  Cs2  1  0.87271265  0.24182424  0.91561320  1
  Cs  Cs3  1  0.59812622  0.26503328  0.08208797  1
  Cs  Cs4  1  0.90187378  0.26503328  0.58208797  1
  Cs  Cs5  1  0.88034266  0.68251699  0.90916586  1
  Cs  Cs6  1  0.40187378  0.73496672  0.91791203  1
  Cs  Cs7  1  0.11965734  0.31748301  0.09083414  1
  Cs  Cs8  1  0.37271265  0.75817576  0.58438680  1
  Cs  Cs9  1  0.36749696  0.18073315  0.91036611  1
  Cs  Cs10  1  0.86749696  0.81926685  0.58963389  1
  Cs  Cs11  1  0.63250304  0.81926685  0.08963389  1
  Cs  Cs12  1  0.61965734  0.68251699  0.40916586  1
  Cs  Cs13  1  0.38034266  0.31748301  0.59083414  1
  Cs  Cs14  1  0.62728735  0.24182424  0.41561320  1
  Cs  Cs15  1  0.12728735  0.75817576  0.08438680  1
  Si  Si16  1  0.44032974  0.43899646  0.19820026  1
  Si  Si17  1  0.94032974  0.56100354  0.30179974  1
  Si  Si18  1  0.57713664  0.92570491  0.69660535  1
  Si  Si19  1  0.68449192  0.42483228  0.69252847  1
  Si  Si20  1  0.07713664  0.07429509  0.80339465  1
  Si  Si21  1  0.70090374  0.06233782  0.80401641  1
  Si  Si22  1  0.42286336  0.07429509  0.30339465  1
  Si  Si23  1  0.79909626  0.06233782  0.30401641  1
  Si  Si24  1  0.05967026  0.43899646  0.69820026  1
  Si  Si25  1  0.55967026  0.56100354  0.80179974  1
  Si  Si26  1  0.29909626  0.93766218  0.19598359  1
  Si  Si27  1  0.31550808  0.57516772  0.30747153  1
  Si  Si28  1  0.20090374  0.93766218  0.69598359  1
  Si  Si29  1  0.18449192  0.57516772  0.80747153  1
  Si  Si30  1  0.81550808  0.42483228  0.19252847  1
  Si  Si31  1  0.92286336  0.92570491  0.19660535  1
  O  O32  1  0.12478956  0.50679377  0.60515481  1
  O  O33  1  0.85515976  0.94483506  0.27327113  1
  O  O34  1  0.64484024  0.94483506  0.77327113  1
  O  O35  1  0.14484024  0.05516494  0.72672887  1
  O  O36  1  0.87556710  0.53955345  0.09820034  1
  O  O37  1  0.37521044  0.50679377  0.10515481  1
  O  O38  1  0.12902215  0.56629016  0.29717147  1
  O  O39  1  0.64479556  0.23984289  0.72737272  1
  O  O40  1  0.88963598  0.06404569  0.79748056  1
  O  O41  1  0.62902215  0.43370984  0.20282853  1
  O  O42  1  0.85520444  0.23984289  0.22737272  1
  O  O43  1  0.85527467  0.04405479  0.10452201  1
  O  O44  1  0.35520444  0.76015711  0.27262728  1
  O  O45  1  0.61658595  0.74137230  0.72913044  1
  O  O46  1  0.62478956  0.49320623  0.89484519  1
  O  O47  1  0.14472533  0.95594521  0.89547799  1
  O  O48  1  0.87097785  0.43370984  0.70282853  1
  O  O49  1  0.61036402  0.06404569  0.29748056  1
  O  O50  1  0.37097785  0.56629016  0.79717147  1
  O  O51  1  0.12443290  0.46044655  0.90179966  1
  O  O52  1  0.38963598  0.93595431  0.70251944  1
  O  O53  1  0.60883326  0.45235932  0.76453744  1
  O  O54  1  0.35527467  0.95594521  0.39547799  1
  O  O55  1  0.38341405  0.25862770  0.27086956  1
  O  O56  1  0.37556710  0.46044655  0.40179966  1
  O  O57  1  0.35515976  0.05516494  0.22672887  1
  O  O58  1  0.39116674  0.54764068  0.23546256  1
  O  O59  1  0.36038400  0.99568792  0.10335794  1
  O  O60  1  0.89116674  0.45235932  0.26453744  1
  O  O61  1  0.11036402  0.93595431  0.20251944  1
  O  O62  1  0.87521044  0.49320623  0.39484519  1
  O  O63  1  0.14479556  0.76015711  0.77262728  1
  O  O64  1  0.63961600  0.00431208  0.89664206  1
  O  O65  1  0.10883326  0.54764068  0.73546256  1
  O  O66  1  0.62443290  0.53955345  0.59820034  1
  O  O67  1  0.64472533  0.04405479  0.60452201  1
  O  O68  1  0.88341405  0.74137230  0.22913044  1
  O  O69  1  0.11658595  0.25862770  0.77086956  1
  O  O70  1  0.13961600  0.99568792  0.60335794  1
  O  O71  1  0.86038400  0.00431208  0.39664206  1
