# generated using pymatgen
data_NaReO4
_symmetry_space_group_name_H-M   'P 1'
_cell_length_a   6.89578442
_cell_length_b   6.89566510
_cell_length_c   6.89607022
_cell_angle_alpha   134.51910180
_cell_angle_beta   134.51885523
_cell_angle_gamma   66.28211296
_symmetry_Int_Tables_number   1
_chemical_formula_structural   NaReO4
_chemical_formula_sum   'Na2 Re2 O8'
_cell_volume   164.11433644
_cell_formula_units_Z   2
loop_
 _symmetry_equiv_pos_site_id
 _symmetry_equiv_pos_as_xyz
  1  'x, y, z'
loop_
 _atom_site_type_symbol
 _atom_site_label
 _atom_site_symmetry_multiplicity
 _atom_site_fract_x
 _atom_site_fract_y
 _atom_site_fract_z
 _atom_site_occupancy
  Na  Na0  1  0.25002052  0.75001012  0.50002564  1
  Na  Na1  1  0.49996843  0.49996667  -0.00006010  1
  Re  Re2  1  0.74998857  0.24993923  0.49991431  1
  Re  Re3  1  0.00000871  0.00006829  0.00008726  1
  O  O4  1  0.94736757  0.31815325  0.09525153  1
  O  O5  1  0.60213798  0.19731384  0.12921648  1
  O  O6  1  0.06809771  0.47285223  0.87070475  1
  O  O7  1  0.22284738  0.85218042  0.90480933  1
  O  O8  1  0.52713897  0.39781571  0.59517359  1
  O  O9  1  0.68191948  0.77715508  0.62931609  1
  O  O10  1  0.14788454  0.05268437  0.37081701  1
  O  O11  1  0.80262015  0.93186079  0.40474411  1
