# generated using pymatgen
data_Cs2Zn3S4
_symmetry_space_group_name_H-M   'P 1'
_cell_length_a   5.82798457
_cell_length_b   9.46614147
_cell_length_c   9.46614168
_cell_angle_alpha   73.82440299
_cell_angle_beta   72.07444240
_cell_angle_gamma   72.07445699
_symmetry_Int_Tables_number   1
_chemical_formula_structural   Cs2Zn3S4
_chemical_formula_sum   'Cs4 Zn6 S8'
_cell_volume   462.90991688
_cell_formula_units_Z   2
loop_
 _symmetry_equiv_pos_site_id
 _symmetry_equiv_pos_as_xyz
  1  'x, y, z'
loop_
 _atom_site_type_symbol
 _atom_site_label
 _atom_site_symmetry_multiplicity
 _atom_site_fract_x
 _atom_site_fract_y
 _atom_site_fract_z
 _atom_site_occupancy
  Cs  Cs0  1  0.76602554  0.87951487  0.12062039  1
  Cs  Cs1  1  0.26602554  0.62062039  0.37951487  1
  Cs  Cs2  1  0.73397446  0.37937961  0.62048513  1
  Cs  Cs3  1  0.23397446  0.12048513  0.87937961  1
  Zn  Zn4  1  0.25000000  0.24994071  0.25005929  1
  Zn  Zn5  1  0.75000000  0.75005929  0.74994071  1
  Zn  Zn6  1  0.75000000  0.02394395  0.47605605  1
  Zn  Zn7  1  0.75000000  0.47583518  0.02416482  1
  Zn  Zn8  1  0.25000000  0.97605605  0.52394395  1
  Zn  Zn9  1  0.25000000  0.52416482  0.97583518  1
  S  S10  1  0.62189495  0.79087297  0.52403774  1
  S  S11  1  0.43695482  0.70908494  0.97601383  1
  S  S12  1  0.87810505  0.97596226  0.70912703  1
  S  S13  1  0.06304518  0.52398617  0.79091506  1
  S  S14  1  0.37810505  0.20912703  0.47596226  1
  S  S15  1  0.56304518  0.29091506  0.02398617  1
  S  S16  1  0.12189495  0.02403774  0.29087297  1
  S  S17  1  0.93695482  0.47601383  0.20908494  1
