# generated using pymatgen
data_Cs3BiSe3
_symmetry_space_group_name_H-M   'P 1'
_cell_length_a   10.73079035
_cell_length_b   10.73079035
_cell_length_c   10.73079035
_cell_angle_alpha   90.00000000
_cell_angle_beta   90.00000000
_cell_angle_gamma   90.00000000
_symmetry_Int_Tables_number   1
_chemical_formula_structural   Cs3BiSe3
_chemical_formula_sum   'Cs12 Bi4 Se12'
_cell_volume   1235.64902297
_cell_formula_units_Z   4
loop_
 _symmetry_equiv_pos_site_id
 _symmetry_equiv_pos_as_xyz
  1  'x, y, z'
loop_
 _atom_site_type_symbol
 _atom_site_label
 _atom_site_symmetry_multiplicity
 _atom_site_fract_x
 _atom_site_fract_y
 _atom_site_fract_z
 _atom_site_occupancy
  Cs  Cs0  1  0.17976957  0.67976957  0.82023043  1
  Cs  Cs1  1  0.31152614  0.68847386  0.18847386  1
  Cs  Cs2  1  0.92991102  0.42991102  0.07008898  1
  Cs  Cs3  1  0.81152614  0.81152614  0.81152614  1
  Cs  Cs4  1  0.42991102  0.07008898  0.92991102  1
  Cs  Cs5  1  0.67976957  0.82023043  0.17976957  1
  Cs  Cs6  1  0.57008898  0.57008898  0.57008898  1
  Cs  Cs7  1  0.82023043  0.17976957  0.67976957  1
  Cs  Cs8  1  0.68847386  0.18847386  0.31152614  1
  Cs  Cs9  1  0.07008898  0.92991102  0.42991102  1
  Cs  Cs10  1  0.18847386  0.31152614  0.68847386  1
  Cs  Cs11  1  0.32023043  0.32023043  0.32023043  1
  Bi  Bi12  1  0.52862440  0.47137560  0.97137560  1
  Bi  Bi13  1  0.02862440  0.02862440  0.02862440  1
  Bi  Bi14  1  0.97137560  0.52862440  0.47137560  1
  Bi  Bi15  1  0.47137560  0.97137560  0.52862440  1
  Se  Se16  1  0.29200192  0.39687651  0.99605817  1
  Se  Se17  1  0.79200192  0.10312349  0.00394183  1
  Se  Se18  1  0.70799808  0.89687651  0.50394183  1
  Se  Se19  1  0.99605817  0.29200192  0.39687651  1
  Se  Se20  1  0.89687651  0.50394183  0.70799808  1
  Se  Se21  1  0.10312349  0.00394183  0.79200192  1
  Se  Se22  1  0.20799808  0.60312349  0.49605817  1
  Se  Se23  1  0.39687651  0.99605817  0.29200192  1
  Se  Se24  1  0.60312349  0.49605817  0.20799808  1
  Se  Se25  1  0.50394183  0.70799808  0.89687651  1
  Se  Se26  1  0.00394183  0.79200192  0.10312349  1
  Se  Se27  1  0.49605817  0.20799808  0.60312349  1
