# generated using pymatgen
data_K3Ni2F7
_symmetry_space_group_name_H-M   'P 1'
_cell_length_a   10.88163605
_cell_length_b   10.88163605
_cell_length_c   10.88163605
_cell_angle_alpha   158.80199442
_cell_angle_beta   158.80199442
_cell_angle_gamma   30.15463836
_symmetry_Int_Tables_number   1
_chemical_formula_structural   K3Ni2F7
_chemical_formula_sum   'K3 Ni2 F7'
_cell_volume   168.36587683
_cell_formula_units_Z   1
loop_
 _symmetry_equiv_pos_site_id
 _symmetry_equiv_pos_as_xyz
  1  'x, y, z'
loop_
 _atom_site_type_symbol
 _atom_site_label
 _atom_site_symmetry_multiplicity
 _atom_site_fract_x
 _atom_site_fract_y
 _atom_site_fract_z
 _atom_site_occupancy
  K  K0  1  0.31539134  0.31539134  0.00000000  1
  K  K1  1  0.68460866  0.68460866  -0.00000000  1
  K  K2  1  0.50000000  0.50000000  -0.00000000  1
  Ni  Ni3  1  0.09553099  0.09553099  -0.00000000  1
  Ni  Ni4  1  0.90446901  0.90446901  0.00000000  1
  F  F5  1  -0.00000000  -0.00000000  -0.00000000  1
  F  F6  1  0.90548790  0.40548790  0.50000000  1
  F  F7  1  0.40548790  0.90548790  0.50000000  1
  F  F8  1  0.09451210  0.59451210  0.50000000  1
  F  F9  1  0.59451210  0.09451210  0.50000000  1
  F  F10  1  0.19048393  0.19048393  0.00000000  1
  F  F11  1  0.80951607  0.80951607  -0.00000000  1
