# generated using pymatgen
data_Li2ZnSn3O8
_symmetry_space_group_name_H-M   'P 1'
_cell_length_a   10.52093784
_cell_length_b   10.52093784
_cell_length_c   9.91092506
_cell_angle_alpha   90.00000000
_cell_angle_beta   90.00000000
_cell_angle_gamma   120.05941502
_symmetry_Int_Tables_number   1
_chemical_formula_structural   Li2ZnSn3O8
_chemical_formula_sum   'Li12 Zn6 Sn18 O48'
_cell_volume   949.49658672
_cell_formula_units_Z   6
loop_
 _symmetry_equiv_pos_site_id
 _symmetry_equiv_pos_as_xyz
  1  'x, y, z'
loop_
 _atom_site_type_symbol
 _atom_site_label
 _atom_site_symmetry_multiplicity
 _atom_site_fract_x
 _atom_site_fract_y
 _atom_site_fract_z
 _atom_site_occupancy
  Li  Li0  1  0.33373497  0.69600196  0.71872042  1
  Li  Li1  1  0.33374850  0.83311239  0.49103272  1
  Li  Li2  1  0.66626503  0.30399804  0.21872042  1
  Li  Li3  1  0.83311239  0.33374850  0.49103272  1
  Li  Li4  1  0.16597545  0.16597545  0.99160072  1
  Li  Li5  1  0.30399804  0.66626503  0.21872042  1
  Li  Li6  1  0.66625150  0.16688761  0.99103272  1
  Li  Li7  1  0.16688761  0.66625150  0.99103272  1
  Li  Li8  1  0.98112121  0.98112121  0.71644336  1
  Li  Li9  1  0.69600196  0.33373497  0.71872042  1
  Li  Li10  1  0.01887879  0.01887879  0.21644336  1
  Li  Li11  1  0.83402455  0.83402455  0.49160072  1
  Zn  Zn12  1  0.66588167  0.00059105  0.30561647  1
  Zn  Zn13  1  0.99940895  0.33411833  0.80561647  1
  Zn  Zn14  1  0.66758024  0.66758024  0.80851639  1
  Zn  Zn15  1  0.33241976  0.33241976  0.30851639  1
  Zn  Zn16  1  0.33411833  0.99940895  0.80561647  1
  Zn  Zn17  1  0.00059105  0.66588167  0.30561647  1
  Sn  Sn18  1  0.16089153  0.50560991  0.49753593  1
  Sn  Sn19  1  0.15798958  0.98332176  0.49644788  1
  Sn  Sn20  1  0.50802142  0.68116420  0.49601717  1
  Sn  Sn21  1  0.98332176  0.15798958  0.49644788  1
  Sn  Sn22  1  0.68116420  0.50802142  0.49601717  1
  Sn  Sn23  1  0.50560991  0.16089153  0.49753593  1
  Sn  Sn24  1  0.31883580  0.49197858  0.99601717  1
  Sn  Sn25  1  0.00389848  0.66682170  0.71776121  1
  Sn  Sn26  1  0.67124381  0.67124381  0.21615709  1
  Sn  Sn27  1  0.83910847  0.49439009  0.99753593  1
  Sn  Sn28  1  0.01667824  0.84201042  0.99644788  1
  Sn  Sn29  1  0.66682170  0.00389848  0.71776121  1
  Sn  Sn30  1  0.99610152  0.33317830  0.21776121  1
  Sn  Sn31  1  0.33317830  0.99610152  0.21776121  1
  Sn  Sn32  1  0.49439009  0.83910847  0.99753593  1
  Sn  Sn33  1  0.32875619  0.32875619  0.71615709  1
  Sn  Sn34  1  0.49197858  0.31883580  0.99601717  1
  Sn  Sn35  1  0.84201042  0.01667824  0.99644788  1
  O  O36  1  0.49768068  0.16827277  0.11730028  1
  O  O37  1  0.33562893  0.66613863  0.89745881  1
  O  O38  1  0.83284173  0.99934591  0.61696477  1
  O  O39  1  0.83172723  0.50231932  0.61730028  1
  O  O40  1  0.84230916  0.84230916  0.11172460  1
  O  O41  1  0.66269047  0.66269047  0.60692944  1
  O  O42  1  0.33730953  0.33730953  0.10692944  1
  O  O43  1  0.66510561  0.16900579  0.61646998  1
  O  O44  1  0.33092659  0.14983791  0.37105561  1
  O  O45  1  0.51757373  0.51757373  0.36740596  1
  O  O46  1  0.66738202  0.99715947  0.10392888  1
  O  O47  1  0.66613863  0.33562893  0.89745881  1
  O  O48  1  0.16900579  0.66510561  0.61646998  1
  O  O49  1  0.85016209  0.66907341  0.87105561  1
  O  O50  1  0.16715827  0.00065409  0.11696477  1
  O  O51  1  0.99715947  0.66738202  0.10392888  1
  O  O52  1  0.33386137  0.66437107  0.39745881  1
  O  O53  1  0.66437107  0.33386137  0.39745881  1
  O  O54  1  0.99167557  0.51028019  0.85925532  1
  O  O55  1  0.51028019  0.99167557  0.85925532  1
  O  O56  1  0.82096322  0.15151919  0.85987937  1
  O  O57  1  0.99934591  0.83284173  0.61696477  1
  O  O58  1  0.48242627  0.48242627  0.86740596  1
  O  O59  1  0.17903678  0.84848081  0.35987937  1
  O  O60  1  0.66138805  0.81591489  0.35635182  1
  O  O61  1  0.14983791  0.33092659  0.37105561  1
  O  O62  1  0.33261798  0.00284053  0.60392888  1
  O  O63  1  0.49645159  0.66495972  0.10925009  1
  O  O64  1  0.00284053  0.33261798  0.60392888  1
  O  O65  1  0.16827277  0.49768068  0.11730028  1
  O  O66  1  0.33861195  0.18408511  0.85635182  1
  O  O67  1  0.50231932  0.83172723  0.61730028  1
  O  O68  1  0.99920822  0.99920822  0.89712500  1
  O  O69  1  0.00065409  0.16715827  0.11696477  1
  O  O70  1  0.00079178  0.00079178  0.39712500  1
  O  O71  1  0.15769084  0.15769084  0.61172460  1
  O  O72  1  0.15151919  0.82096322  0.85987937  1
  O  O73  1  0.66907341  0.85016209  0.87105561  1
  O  O74  1  0.18408511  0.33861195  0.85635182  1
  O  O75  1  0.81591489  0.66138805  0.35635182  1
  O  O76  1  0.83099421  0.33489439  0.11646998  1
  O  O77  1  0.00832443  0.48971981  0.35925532  1
  O  O78  1  0.33504028  0.50354841  0.60925009  1
  O  O79  1  0.48971981  0.00832443  0.35925532  1
  O  O80  1  0.33489439  0.83099421  0.11646998  1
  O  O81  1  0.84848081  0.17903678  0.35987937  1
  O  O82  1  0.66495972  0.49645159  0.10925009  1
  O  O83  1  0.50354841  0.33504028  0.60925009  1
