# generated using pymatgen
data_FePCl8
_symmetry_space_group_name_H-M   'P 1'
_cell_length_a   6.12541621
_cell_length_b   13.80806364
_cell_length_c   13.95707663
_cell_angle_alpha   90.00000000
_cell_angle_beta   90.00000000
_cell_angle_gamma   90.00000000
_symmetry_Int_Tables_number   1
_chemical_formula_structural   FePCl8
_chemical_formula_sum   'Fe4 P4 Cl32'
_cell_volume   1180.49145138
_cell_formula_units_Z   4
loop_
 _symmetry_equiv_pos_site_id
 _symmetry_equiv_pos_as_xyz
  1  'x, y, z'
loop_
 _atom_site_type_symbol
 _atom_site_label
 _atom_site_symmetry_multiplicity
 _atom_site_fract_x
 _atom_site_fract_y
 _atom_site_fract_z
 _atom_site_occupancy
  Fe  Fe0  1  0.26554133  0.02293474  0.25000000  1
  Fe  Fe1  1  0.26554133  0.47706526  0.75000000  1
  Fe  Fe2  1  0.73445867  0.52293474  0.25000000  1
  Fe  Fe3  1  0.73445867  0.97706526  0.75000000  1
  P  P4  1  0.95336122  0.25000000  -0.00000000  1
  P  P5  1  0.04663878  0.75000000  0.50000000  1
  P  P6  1  0.04663878  0.75000000  -0.00000000  1
  P  P7  1  0.95336122  0.25000000  0.50000000  1
  Cl  Cl8  1  0.39565003  0.95778414  0.11837079  1
  Cl  Cl9  1  0.39565003  0.54221586  0.88162921  1
  Cl  Cl10  1  0.60434997  0.45778414  0.38162921  1
  Cl  Cl11  1  0.60434997  0.04221586  0.61837079  1
  Cl  Cl12  1  0.60434997  0.04221586  0.88162921  1
  Cl  Cl13  1  0.60434997  0.45778414  0.11837079  1
  Cl  Cl14  1  0.39565003  0.54221586  0.61837079  1
  Cl  Cl15  1  0.39565003  0.95778414  0.38162921  1
  Cl  Cl16  1  0.33435841  0.18048397  0.25000000  1
  Cl  Cl17  1  0.33435841  0.31951603  0.75000000  1
  Cl  Cl18  1  0.66564159  0.68048397  0.25000000  1
  Cl  Cl19  1  0.66564159  0.81951603  0.75000000  1
  Cl  Cl20  1  0.91111978  0.00203550  0.25000000  1
  Cl  Cl21  1  0.91111978  0.49796450  0.75000000  1
  Cl  Cl22  1  0.08888022  0.50203550  0.25000000  1
  Cl  Cl23  1  0.08888022  0.99796450  0.75000000  1
  Cl  Cl24  1  0.13819765  0.35251120  0.04978382  1
  Cl  Cl25  1  0.13819765  0.14748880  0.95021618  1
  Cl  Cl26  1  0.86180235  0.85251120  0.45021618  1
  Cl  Cl27  1  0.86180235  0.64748880  0.54978382  1
  Cl  Cl28  1  0.86180235  0.64748880  0.95021618  1
  Cl  Cl29  1  0.86180235  0.85251120  0.04978382  1
  Cl  Cl30  1  0.13819765  0.14748880  0.54978382  1
  Cl  Cl31  1  0.13819765  0.35251120  0.45021618  1
  Cl  Cl32  1  0.76840171  0.19904996  0.10123914  1
  Cl  Cl33  1  0.76840171  0.30095004  0.89876086  1
  Cl  Cl34  1  0.23159829  0.69904996  0.39876086  1
  Cl  Cl35  1  0.23159829  0.80095004  0.60123914  1
  Cl  Cl36  1  0.23159829  0.80095004  0.89876086  1
  Cl  Cl37  1  0.23159829  0.69904996  0.10123914  1
  Cl  Cl38  1  0.76840171  0.30095004  0.60123914  1
  Cl  Cl39  1  0.76840171  0.19904996  0.39876086  1
