# generated using pymatgen
data_NaFeF3
_symmetry_space_group_name_H-M   'P 1'
_cell_length_a   5.40024129
_cell_length_b   5.67492859
_cell_length_c   7.75734924
_cell_angle_alpha   90.00000000
_cell_angle_beta   90.00000000
_cell_angle_gamma   90.00000000
_symmetry_Int_Tables_number   1
_chemical_formula_structural   NaFeF3
_chemical_formula_sum   'Na4 Fe4 F12'
_cell_volume   237.73159828
_cell_formula_units_Z   4
loop_
 _symmetry_equiv_pos_site_id
 _symmetry_equiv_pos_as_xyz
  1  'x, y, z'
loop_
 _atom_site_type_symbol
 _atom_site_label
 _atom_site_symmetry_multiplicity
 _atom_site_fract_x
 _atom_site_fract_y
 _atom_site_fract_z
 _atom_site_occupancy
  Na  Na0  1  0.97864262  0.06981070  0.25000000  1
  Na  Na1  1  0.52135738  0.56981070  0.25000000  1
  Na  Na2  1  0.02135738  0.93018930  0.75000000  1
  Na  Na3  1  0.47864262  0.43018930  0.75000000  1
  Fe  Fe4  1  0.00000000  0.50000000  -0.00000000  1
  Fe  Fe5  1  0.50000000  -0.00000000  0.50000000  1
  Fe  Fe6  1  0.00000000  0.50000000  0.50000000  1
  Fe  Fe7  1  0.50000000  -0.00000000  -0.00000000  1
  F  F8  1  0.12647471  0.45211316  0.25000000  1
  F  F9  1  0.37352529  0.95211316  0.25000000  1
  F  F10  1  0.87352529  0.54788684  0.75000000  1
  F  F11  1  0.62647471  0.04788684  0.75000000  1
  F  F12  1  0.69734406  0.31111667  0.05893349  1
  F  F13  1  0.80265594  0.81111667  0.44106651  1
  F  F14  1  0.30265594  0.68888333  0.55893349  1
  F  F15  1  0.19734406  0.18888333  0.94106651  1
  F  F16  1  0.30265594  0.68888333  0.94106651  1
  F  F17  1  0.19734406  0.18888333  0.55893349  1
  F  F18  1  0.69734406  0.31111667  0.44106651  1
  F  F19  1  0.80265594  0.81111667  0.05893349  1
