# generated using pymatgen
data_K2(TcS2)3
_symmetry_space_group_name_H-M   'P 1'
_cell_length_a   9.59597564
_cell_length_b   9.59597564
_cell_length_c   11.90639332
_cell_angle_alpha   88.78314207
_cell_angle_beta   88.78314207
_cell_angle_gamma   61.15880279
_symmetry_Int_Tables_number   1
_chemical_formula_structural   K2(TcS2)3
_chemical_formula_sum   'K8 Tc12 S24'
_cell_volume   960.08710246
_cell_formula_units_Z   4
loop_
 _symmetry_equiv_pos_site_id
 _symmetry_equiv_pos_as_xyz
  1  'x, y, z'
loop_
 _atom_site_type_symbol
 _atom_site_label
 _atom_site_symmetry_multiplicity
 _atom_site_fract_x
 _atom_site_fract_y
 _atom_site_fract_z
 _atom_site_occupancy
  K  K0  1  0.60046222  0.39953778  0.75000000  1
  K  K1  1  0.39953778  0.60046222  0.25000000  1
  K  K2  1  0.21135198  0.78864802  0.75000000  1
  K  K3  1  0.78864802  0.21135198  0.25000000  1
  K  K4  1  0.12213053  0.64322086  0.02165191  1
  K  K5  1  0.35677914  0.87786947  0.47834809  1
  K  K6  1  0.87786947  0.35677914  0.97834809  1
  K  K7  1  0.64322086  0.12213053  0.52165191  1
  Tc  Tc8  1  0.00342887  0.31058082  0.52551778  1
  Tc  Tc9  1  0.68941918  0.99657113  0.97448222  1
  Tc  Tc10  1  0.99657113  0.68941918  0.47448222  1
  Tc  Tc11  1  0.31058082  0.00342887  0.02551778  1
  Tc  Tc12  1  0.11427972  0.47007129  0.62931550  1
  Tc  Tc13  1  0.52992871  0.88572028  0.87068450  1
  Tc  Tc14  1  0.88572028  0.52992871  0.37068450  1
  Tc  Tc15  1  0.47007129  0.11427972  0.12931550  1
  Tc  Tc16  1  0.81348674  0.60218474  0.58249847  1
  Tc  Tc17  1  0.39781526  0.18651326  0.91750153  1
  Tc  Tc18  1  0.18651326  0.39781526  0.41750153  1
  Tc  Tc19  1  0.60218474  0.81348674  0.08249847  1
  S  S20  1  0.07209864  0.25715049  0.33251441  1
  S  S21  1  0.74284951  0.92790136  0.16748559  1
  S  S22  1  0.92790136  0.74284951  0.66748559  1
  S  S23  1  0.25715049  0.07209864  0.83251441  1
  S  S24  1  0.79424928  0.72027912  0.93124326  1
  S  S25  1  0.27972088  0.20575072  0.56875674  1
  S  S26  1  0.20575072  0.27972088  0.06875674  1
  S  S27  1  0.72027912  0.79424928  0.43124326  1
  S  S28  1  0.06124716  0.61067638  0.28348803  1
  S  S29  1  0.38932362  0.93875284  0.21651197  1
  S  S30  1  0.93875284  0.38932362  0.71651197  1
  S  S31  1  0.61067638  0.06124716  0.78348803  1
  S  S32  1  0.27621539  0.55508020  0.52014653  1
  S  S33  1  0.44491980  0.72378461  0.97985347  1
  S  S34  1  0.72378461  0.44491980  0.47985347  1
  S  S35  1  0.55508020  0.27621539  0.02014653  1
  S  S36  1  0.05893081  0.99995196  0.07355652  1
  S  S37  1  0.00004804  0.94106919  0.42644348  1
  S  S38  1  0.94106919  0.00004804  0.92644348  1
  S  S39  1  0.99995196  0.05893081  0.57355652  1
  S  S40  1  0.26360107  0.43873589  0.80517156  1
  S  S41  1  0.56126411  0.73639893  0.69482844  1
  S  S42  1  0.73639893  0.56126411  0.19482844  1
  S  S43  1  0.43873589  0.26360107  0.30517156  1
