# generated using pymatgen
data_Ca7GeN6
_symmetry_space_group_name_H-M   'P 1'
_cell_length_a   6.21228366
_cell_length_b   10.90762008
_cell_length_c   13.19862571
_cell_angle_alpha   90.00000000
_cell_angle_beta   90.00000000
_cell_angle_gamma   90.00000000
_symmetry_Int_Tables_number   1
_chemical_formula_structural   Ca7GeN6
_chemical_formula_sum   'Ca28 Ge4 N24'
_cell_volume   894.35511232
_cell_formula_units_Z   4
loop_
 _symmetry_equiv_pos_site_id
 _symmetry_equiv_pos_as_xyz
  1  'x, y, z'
loop_
 _atom_site_type_symbol
 _atom_site_label
 _atom_site_symmetry_multiplicity
 _atom_site_fract_x
 _atom_site_fract_y
 _atom_site_fract_z
 _atom_site_occupancy
  Ca  Ca0  1  0.10867557  0.79535161  0.61695620  1
  Ca  Ca1  1  0.35615043  0.27162048  0.62625182  1
  Ca  Ca2  1  0.26917390  0.96202876  0.02102404  1
  Ca  Ca3  1  0.44179609  0.00000000  0.75000000  1
  Ca  Ca4  1  0.26917390  0.03797124  0.47897596  1
  Ca  Ca5  1  0.05820391  0.50000000  0.25000000  1
  Ca  Ca6  1  0.10867557  0.20464839  0.88304380  1
  Ca  Ca7  1  0.14384957  0.77162048  0.37374818  1
  Ca  Ca8  1  0.35615043  0.72837952  0.87374818  1
  Ca  Ca9  1  0.73082610  0.03797124  0.97897596  1
  Ca  Ca10  1  0.60867557  0.70464839  0.61695620  1
  Ca  Ca11  1  0.64384957  0.27162048  0.12625182  1
  Ca  Ca12  1  0.23082610  0.46202876  0.97897596  1
  Ca  Ca13  1  0.89132443  0.20464839  0.38304380  1
  Ca  Ca14  1  0.39132443  0.70464839  0.11695620  1
  Ca  Ca15  1  0.60867557  0.29535161  0.88304380  1
  Ca  Ca16  1  0.76917390  0.53797124  0.02102404  1
  Ca  Ca17  1  0.85615043  0.22837952  0.62625182  1
  Ca  Ca18  1  0.89132443  0.79535161  0.11695620  1
  Ca  Ca19  1  0.23082610  0.53797124  0.52102404  1
  Ca  Ca20  1  0.94179609  0.50000000  0.75000000  1
  Ca  Ca21  1  0.76917390  0.46202876  0.47897596  1
  Ca  Ca22  1  0.39132443  0.29535161  0.38304380  1
  Ca  Ca23  1  0.73082610  0.96202876  0.52102404  1
  Ca  Ca24  1  0.64384957  0.72837952  0.37374818  1
  Ca  Ca25  1  0.55820391  0.00000000  0.25000000  1
  Ca  Ca26  1  0.14384957  0.22837952  0.12625182  1
  Ca  Ca27  1  0.85615043  0.77162048  0.87374818  1
  Ge  Ge28  1  0.06642965  0.00000000  0.25000000  1
  Ge  Ge29  1  0.56642965  0.50000000  0.25000000  1
  Ge  Ge30  1  0.93357035  0.00000000  0.75000000  1
  Ge  Ge31  1  0.43357035  0.50000000  0.75000000  1
  N  N32  1  0.11179647  0.95120278  0.85945379  1
  N  N33  1  0.75351142  0.86733447  0.70654336  1
  N  N34  1  0.74648858  0.63266553  0.20654336  1
  N  N35  1  0.59361562  0.83358285  0.99410358  1
  N  N36  1  0.24648858  0.86733447  0.20654336  1
  N  N37  1  0.75351142  0.13266553  0.79345664  1
  N  N38  1  0.59361562  0.16641715  0.50589642  1
  N  N39  1  0.09361562  0.66641715  0.99410358  1
  N  N40  1  0.74648858  0.36733447  0.29345664  1
  N  N41  1  0.24648858  0.13266553  0.29345664  1
  N  N42  1  0.11179647  0.04879722  0.64054621  1
  N  N43  1  0.90638438  0.66641715  0.49410358  1
  N  N44  1  0.88820353  0.04879722  0.14054621  1
  N  N45  1  0.40638438  0.83358285  0.49410358  1
  N  N46  1  0.88820353  0.95120278  0.35945379  1
  N  N47  1  0.38820353  0.45120278  0.14054621  1
  N  N48  1  0.90638438  0.33358285  0.00589642  1
  N  N49  1  0.25351142  0.63266553  0.70654336  1
  N  N50  1  0.40638438  0.16641715  0.00589642  1
  N  N51  1  0.25351142  0.36733447  0.79345664  1
  N  N52  1  0.09361562  0.33358285  0.50589642  1
  N  N53  1  0.61179647  0.54879722  0.85945379  1
  N  N54  1  0.38820353  0.54879722  0.35945379  1
  N  N55  1  0.61179647  0.45120278  0.64054621  1
