# generated using pymatgen
data_Li2Mo4O13
_symmetry_space_group_name_H-M   'P 1'
_cell_length_a   21.91256200
_cell_length_b   8.39817000
_cell_length_c   8.75384044
_cell_angle_alpha   84.06972075
_cell_angle_beta   90.00000000
_cell_angle_gamma   90.00000000
_symmetry_Int_Tables_number   1
_chemical_formula_structural   Li2Mo4O13
_chemical_formula_sum   'Li12 Mo24 O78'
_cell_volume   1602.30805083
_cell_formula_units_Z   6
loop_
 _symmetry_equiv_pos_site_id
 _symmetry_equiv_pos_as_xyz
  1  'x, y, z'
loop_
 _atom_site_type_symbol
 _atom_site_label
 _atom_site_symmetry_multiplicity
 _atom_site_fract_x
 _atom_site_fract_y
 _atom_site_fract_z
 _atom_site_occupancy
  Li  Li0  1  0.68424900  0.12505900  0.93889600  1
  Li  Li1  1  0.86868900  0.45793400  0.61955600  1
  Li  Li2  1  0.68710400  0.71828600  0.90370900  1
  Li  Li3  1  0.18424900  0.87494100  0.06110400  1
  Li  Li4  1  0.49792100  0.78467900  0.27323800  1
  Li  Li5  1  0.99792100  0.21532100  0.72676200  1
  Li  Li6  1  0.86834800  0.05164700  0.57203700  1
  Li  Li7  1  0.36834800  0.94835300  0.42796300  1
  Li  Li8  1  0.99623400  0.62098000  0.77123200  1
  Li  Li9  1  0.18710400  0.28171400  0.09629100  1
  Li  Li10  1  0.36868900  0.54206600  0.38044400  1
  Li  Li11  1  0.49623400  0.37902000  0.22876800  1
  Mo  Mo12  1  0.00297700  0.93627400  0.43602900  1
  Mo  Mo13  1  0.69826100  0.05181100  0.58439500  1
  Mo  Mo14  1  0.66536000  0.39788300  0.23896600  1
  Mo  Mo15  1  0.00242900  0.89742400  0.06674200  1
  Mo  Mo16  1  0.49991300  0.45497000  0.58378600  1
  Mo  Mo17  1  0.86623800  0.13059600  0.92654900  1
  Mo  Mo18  1  0.86620000  0.38691800  0.25870400  1
  Mo  Mo19  1  0.50297700  0.06372600  0.56397100  1
  Mo  Mo20  1  0.00212700  0.28804600  0.08503700  1
  Mo  Mo21  1  0.50242900  0.10257600  0.93325800  1
  Mo  Mo22  1  0.16653800  0.20934800  0.74175600  1
  Mo  Mo23  1  0.16536000  0.60211700  0.76103400  1
  Mo  Mo24  1  0.36620000  0.61308200  0.74129600  1
  Mo  Mo25  1  0.70152300  0.44552000  0.60267300  1
  Mo  Mo26  1  0.36614700  0.22287700  0.72423700  1
  Mo  Mo27  1  0.36470000  0.26285400  0.09317100  1
  Mo  Mo28  1  0.20152300  0.55448000  0.39732700  1
  Mo  Mo29  1  0.50212700  0.71195400  0.91496300  1
  Mo  Mo30  1  0.99991300  0.54503000  0.41621400  1
  Mo  Mo31  1  0.86470000  0.73714600  0.90682900  1
  Mo  Mo32  1  0.19826100  0.94818900  0.41560500  1
  Mo  Mo33  1  0.36623800  0.86940400  0.07345100  1
  Mo  Mo34  1  0.66653800  0.79065200  0.25824400  1
  Mo  Mo35  1  0.86614700  0.77712300  0.27576300  1
  O  O36  1  0.67968100  0.57438600  0.41462000  1
  O  O37  1  0.98273800  0.76163800  0.25489300  1
  O  O38  1  0.28839300  0.85689100  0.05814400  1
  O  O39  1  0.68508300  0.28038100  0.09424600  1
  O  O40  1  0.39402400  0.09749700  0.58660500  1
  O  O41  1  0.48992500  0.27658600  0.45757100  1
  O  O42  1  0.58235000  0.06439600  0.55914700  1
  O  O43  1  0.18313700  0.43515900  0.25323200  1
  O  O44  1  0.78788300  0.77897400  0.29264200  1
  O  O45  1  0.98992500  0.72341400  0.54242900  1
  O  O46  1  0.58597600  0.39119000  0.24162900  1
  O  O47  1  0.98064000  0.10595900  0.95453500  1
  O  O48  1  0.99070400  0.42517100  0.92426800  1
  O  O49  1  0.18232200  0.08253600  0.57583300  1
  O  O50  1  0.78103800  0.44970000  0.59728500  1
  O  O51  1  0.18169600  0.07832800  0.25145600  1
  O  O52  1  0.78600200  0.72861700  0.90310900  1
  O  O53  1  0.47353700  0.22558000  0.07122800  1
  O  O54  1  0.97353700  0.77442000  0.92877200  1
  O  O55  1  0.68146600  0.60959500  0.13206500  1
  O  O56  1  0.37509100  0.75070300  0.57981200  1
  O  O57  1  0.87509100  0.24929700  0.42018800  1
  O  O58  1  0.88913200  0.61511000  0.76781500  1
  O  O59  1  0.38630000  0.73359000  0.23103300  1
  O  O60  1  0.58006800  0.71796600  0.89602200  1
  O  O61  1  0.37783200  0.38641000  0.89343300  1
  O  O62  1  0.48064000  0.89404100  0.04546500  1
  O  O63  1  0.08235000  0.93560400  0.44085300  1
  O  O64  1  0.08031100  0.88755900  0.05308700  1
  O  O65  1  0.99171500  0.06205200  0.23776600  1
  O  O66  1  0.58031100  0.11244100  0.94691300  1
  O  O67  1  0.49171500  0.93794800  0.76223400  1
  O  O68  1  0.17968100  0.42561400  0.58538000  1
  O  O69  1  0.49070400  0.57482900  0.07573200  1
  O  O70  1  0.07782900  0.54485700  0.39221300  1
  O  O71  1  0.08597600  0.60881000  0.75837100  1
  O  O72  1  0.68460800  0.23618900  0.71027300  1
  O  O73  1  0.48273800  0.23836200  0.74510700  1
  O  O74  1  0.18508300  0.71961900  0.90575400  1
  O  O75  1  0.39149700  0.73960000  0.90439900  1
  O  O76  1  0.08728600  0.20520300  0.74314400  1
  O  O77  1  0.28788300  0.22102600  0.70735800  1
  O  O78  1  0.47474400  0.58783600  0.75087300  1
  O  O79  1  0.38913200  0.38489000  0.23218500  1
  O  O80  1  0.88630000  0.26641000  0.76896700  1
  O  O81  1  0.18460800  0.76381100  0.28972700  1
  O  O82  1  0.18627100  0.73127900  0.57320800  1
  O  O83  1  0.38220900  0.08475500  0.91254900  1
  O  O84  1  0.08006800  0.28203400  0.10397800  1
  O  O85  1  0.18146600  0.39040500  0.86793500  1
  O  O86  1  0.77750400  0.05093700  0.57763100  1
  O  O87  1  0.38880400  0.43117000  0.60973900  1
  O  O88  1  0.68232200  0.91746400  0.42416700  1
  O  O89  1  0.57782900  0.45514300  0.60778700  1
  O  O90  1  0.28600200  0.27138300  0.09689100  1
  O  O91  1  0.28819300  0.59699300  0.76221500  1
  O  O92  1  0.88880400  0.56883000  0.39026100  1
  O  O93  1  0.28103800  0.55030000  0.40271500  1
  O  O94  1  0.97474400  0.41216400  0.24912700  1
  O  O95  1  0.18728600  0.07436000  0.89906700  1
  O  O96  1  0.89149700  0.26040000  0.09560100  1
  O  O97  1  0.37540800  0.04853200  0.19959200  1
  O  O98  1  0.68169600  0.92167200  0.74854400  1
  O  O99  1  0.78819300  0.40300700  0.23778500  1
  O  O100  1  0.88220900  0.91524500  0.08745100  1
  O  O101  1  0.68313700  0.56484100  0.74676800  1
  O  O102  1  0.87783200  0.61359000  0.10656700  1
  O  O103  1  0.47980800  0.94083000  0.42522300  1
  O  O104  1  0.27750400  0.94906300  0.42236900  1
  O  O105  1  0.48450900  0.59349400  0.42529000  1
  O  O106  1  0.68627100  0.26872100  0.42679200  1
  O  O107  1  0.78839300  0.14310900  0.94185600  1
  O  O108  1  0.87540800  0.95146800  0.80040800  1
  O  O109  1  0.97980800  0.05917000  0.57477700  1
  O  O110  1  0.68728600  0.92564000  0.10093300  1
  O  O111  1  0.98450900  0.40650600  0.57471000  1
  O  O112  1  0.58728600  0.79479700  0.25685600  1
  O  O113  1  0.89402400  0.90250300  0.41339500  1
