# generated using pymatgen
data_K3VO4
_symmetry_space_group_name_H-M   'P 1'
_cell_length_a   8.27666017
_cell_length_b   8.27666017
_cell_length_c   8.27666017
_cell_angle_alpha   90.00000000
_cell_angle_beta   90.00000000
_cell_angle_gamma   90.00000000
_symmetry_Int_Tables_number   1
_chemical_formula_structural   K3VO4
_chemical_formula_sum   'K12 V4 O16'
_cell_volume   566.97690884
_cell_formula_units_Z   4
loop_
 _symmetry_equiv_pos_site_id
 _symmetry_equiv_pos_as_xyz
  1  'x, y, z'
loop_
 _atom_site_type_symbol
 _atom_site_label
 _atom_site_symmetry_multiplicity
 _atom_site_fract_x
 _atom_site_fract_y
 _atom_site_fract_z
 _atom_site_occupancy
  K  K0  1  0.46429092  0.53570908  0.03570908  1
  K  K1  1  0.51188888  0.98811112  0.01188888  1
  K  K2  1  0.48811112  0.48811112  0.48811112  1
  K  K3  1  0.96429092  0.96429092  0.96429092  1
  K  K4  1  0.53570908  0.03570908  0.46429092  1
  K  K5  1  0.03570908  0.46429092  0.53570908  1
  K  K6  1  0.21576599  0.78423401  0.28423401  1
  K  K7  1  0.28423401  0.21576599  0.78423401  1
  K  K8  1  0.01188888  0.51188888  0.98811112  1
  K  K9  1  0.98811112  0.01188888  0.51188888  1
  K  K10  1  0.78423401  0.28423401  0.21576599  1
  K  K11  1  0.71576599  0.71576599  0.71576599  1
  V  V12  1  0.73615163  0.76384837  0.23615163  1
  V  V13  1  0.76384837  0.23615163  0.73615163  1
  V  V14  1  0.26384837  0.26384837  0.26384837  1
  V  V15  1  0.23615163  0.73615163  0.76384837  1
  O  O16  1  0.53516497  0.74553557  0.29035777  1
  O  O17  1  0.35521995  0.85521995  0.64478005  1
  O  O18  1  0.85521995  0.64478005  0.35521995  1
  O  O19  1  0.74553557  0.29035777  0.53516497  1
  O  O20  1  0.03516497  0.75446443  0.70964223  1
  O  O21  1  0.24553557  0.20964223  0.46483503  1
  O  O22  1  0.20964223  0.46483503  0.24553557  1
  O  O23  1  0.96483503  0.25446443  0.79035777  1
  O  O24  1  0.29035777  0.53516497  0.74553557  1
  O  O25  1  0.46483503  0.24553557  0.20964223  1
  O  O26  1  0.79035777  0.96483503  0.25446443  1
  O  O27  1  0.64478005  0.35521995  0.85521995  1
  O  O28  1  0.75446443  0.70964223  0.03516497  1
  O  O29  1  0.70964223  0.03516497  0.75446443  1
  O  O30  1  0.14478005  0.14478005  0.14478005  1
  O  O31  1  0.25446443  0.79035777  0.96483503  1
