# generated using pymatgen
data_Cs2CdI4
_symmetry_space_group_name_H-M   'P 1'
_cell_length_a   8.61154854
_cell_length_b   11.00576206
_cell_length_c   15.10859914
_cell_angle_alpha   90.00000000
_cell_angle_beta   90.00000000
_cell_angle_gamma   90.00000000
_symmetry_Int_Tables_number   1
_chemical_formula_structural   Cs2CdI4
_chemical_formula_sum   'Cs8 Cd4 I16'
_cell_volume   1431.94247613
_cell_formula_units_Z   4
loop_
 _symmetry_equiv_pos_site_id
 _symmetry_equiv_pos_as_xyz
  1  'x, y, z'
loop_
 _atom_site_type_symbol
 _atom_site_label
 _atom_site_symmetry_multiplicity
 _atom_site_fract_x
 _atom_site_fract_y
 _atom_site_fract_z
 _atom_site_occupancy
  Cs  Cs0  1  0.25000000  0.47829320  0.16907560  1
  Cs  Cs1  1  0.25000000  0.61516371  0.57653128  1
  Cs  Cs2  1  0.75000000  0.38483629  0.42346872  1
  Cs  Cs3  1  0.25000000  0.11516371  0.92346872  1
  Cs  Cs4  1  0.25000000  0.97829320  0.33092440  1
  Cs  Cs5  1  0.75000000  0.52170680  0.83092440  1
  Cs  Cs6  1  0.75000000  0.88483629  0.07653128  1
  Cs  Cs7  1  0.75000000  0.02170680  0.66907560  1
  Cd  Cd8  1  0.25000000  0.72363034  0.92469073  1
  Cd  Cd9  1  0.25000000  0.22363034  0.57530927  1
  Cd  Cd10  1  0.75000000  0.27636966  0.07530927  1
  Cd  Cd11  1  0.75000000  0.77636966  0.42469073  1
  I  I12  1  0.01162795  0.17155678  0.15427675  1
  I  I13  1  0.51162795  0.32844322  0.65427675  1
  I  I14  1  0.75000000  0.18312073  0.90189035  1
  I  I15  1  0.25000000  0.47162018  0.90825979  1
  I  I16  1  0.48837205  0.67155678  0.34572325  1
  I  I17  1  0.25000000  0.81687927  0.09810965  1
  I  I18  1  0.51162795  0.82844322  0.84572325  1
  I  I19  1  0.75000000  0.68312073  0.59810965  1
  I  I20  1  0.75000000  0.02837982  0.40825979  1
  I  I21  1  0.75000000  0.52837982  0.09174021  1
  I  I22  1  0.48837205  0.17155678  0.15427675  1
  I  I23  1  0.98837205  0.32844322  0.65427675  1
  I  I24  1  0.25000000  0.31687927  0.40189035  1
  I  I25  1  0.98837205  0.82844322  0.84572325  1
  I  I26  1  0.25000000  0.97162018  0.59174021  1
  I  I27  1  0.01162795  0.67155678  0.34572325  1
