# generated using pymatgen
data_Ba2SnS4
_symmetry_space_group_name_H-M   'P 1'
_cell_length_a   7.48594211
_cell_length_b   12.70289879
_cell_length_c   17.96561413
_cell_angle_alpha   90.00000000
_cell_angle_beta   90.00000000
_cell_angle_gamma   90.00000000
_symmetry_Int_Tables_number   1
_chemical_formula_structural   Ba2SnS4
_chemical_formula_sum   'Ba16 Sn8 S32'
_cell_volume   1708.40710827
_cell_formula_units_Z   8
loop_
 _symmetry_equiv_pos_site_id
 _symmetry_equiv_pos_as_xyz
  1  'x, y, z'
loop_
 _atom_site_type_symbol
 _atom_site_label
 _atom_site_symmetry_multiplicity
 _atom_site_fract_x
 _atom_site_fract_y
 _atom_site_fract_z
 _atom_site_occupancy
  Ba  Ba0  1  0.71854694  0.00033245  0.62664519  1
  Ba  Ba1  1  0.28145306  0.50033345  0.37335481  1
  Ba  Ba2  1  0.78145306  0.00033245  0.12664519  1
  Ba  Ba3  1  0.21854694  0.50033345  0.87335481  1
  Ba  Ba4  1  0.69617200  0.87985749  0.87494678  1
  Ba  Ba5  1  0.30382800  0.37985749  0.12505322  1
  Ba  Ba6  1  0.80382800  0.87985749  0.37494678  1
  Ba  Ba7  1  0.19617200  0.37985749  0.62505322  1
  Ba  Ba8  1  0.69775601  0.61495319  0.68931789  1
  Ba  Ba9  1  0.30224399  0.11495319  0.31068211  1
  Ba  Ba10  1  0.80224399  0.61495319  0.18931789  1
  Ba  Ba11  1  0.19775601  0.11495319  0.81068211  1
  Ba  Ba12  1  0.72650094  0.26126763  0.94563227  1
  Ba  Ba13  1  0.27349906  0.76126763  0.05436773  1
  Ba  Ba14  1  0.77349906  0.26126763  0.44563227  1
  Ba  Ba15  1  0.22650094  0.76126763  0.55436773  1
  Sn  Sn16  1  0.77333857  0.60869121  0.97585512  1
  Sn  Sn17  1  0.22666143  0.10869121  0.02414488  1
  Sn  Sn18  1  0.72666143  0.60869121  0.47585512  1
  Sn  Sn19  1  0.27333857  0.10869121  0.52414488  1
  Sn  Sn20  1  0.71314604  0.27223882  0.73374083  1
  Sn  Sn21  1  0.28685396  0.77223882  0.26625917  1
  Sn  Sn22  1  0.78685396  0.27223882  0.23374083  1
  Sn  Sn23  1  0.21314604  0.77223882  0.76625917  1
  S  S24  1  0.99706656  0.90760233  0.75037052  1
  S  S25  1  0.00293344  0.40760233  0.24962948  1
  S  S26  1  0.50293344  0.90760233  0.25037052  1
  S  S27  1  0.49706656  0.40760233  0.74962948  1
  S  S28  1  0.95961606  0.48576813  0.49326687  1
  S  S29  1  0.04038394  0.98576813  0.50673313  1
  S  S30  1  0.54038394  0.48576813  0.99326687  1
  S  S31  1  0.45961606  0.98576813  0.00673313  1
  S  S32  1  0.97721469  0.32692039  0.80088838  1
  S  S33  1  0.02278531  0.82692039  0.19911162  1
  S  S34  1  0.52278531  0.32692039  0.30088738  1
  S  S35  1  0.47721469  0.82692039  0.69911162  1
  S  S36  1  0.96216823  0.04231636  0.96324028  1
  S  S37  1  0.03783177  0.54231636  0.03675972  1
  S  S38  1  0.53783177  0.04231636  0.46324028  1
  S  S39  1  0.46216823  0.54231636  0.53675972  1
  S  S40  1  0.85594165  0.64804653  0.85200959  1
  S  S41  1  0.14405835  0.14804653  0.14799041  1
  S  S42  1  0.64405835  0.64804653  0.35200959  1
  S  S43  1  0.35594165  0.14804653  0.64799041  1
  S  S44  1  0.84123237  0.23637179  0.61582367  1
  S  S45  1  0.15876763  0.73637179  0.38417633  1
  S  S46  1  0.65876763  0.23637179  0.11582367  1
  S  S47  1  0.34123237  0.73637179  0.88417633  1
  S  S48  1  0.79365275  0.76717761  0.54314770  1
  S  S49  1  0.20634725  0.26717761  0.45685230  1
  S  S50  1  0.70634725  0.76717761  0.04314770  1
  S  S51  1  0.29365275  0.26717761  0.95685230  1
  S  S52  1  0.63521741  0.11425505  0.80140361  1
  S  S53  1  0.36478259  0.61425505  0.19859639  1
  S  S54  1  0.86478259  0.11425505  0.30140361  1
  S  S55  1  0.13521741  0.61425505  0.69859639  1
