# generated using pymatgen
data_GaCl2
_symmetry_space_group_name_H-M   'P 1'
_cell_length_a   7.21086211
_cell_length_b   9.57714237
_cell_length_c   9.58323348
_cell_angle_alpha   90.00000000
_cell_angle_beta   90.00000000
_cell_angle_gamma   90.00000000
_symmetry_Int_Tables_number   1
_chemical_formula_structural   GaCl2
_chemical_formula_sum   'Ga8 Cl16'
_cell_volume   661.81286246
_cell_formula_units_Z   8
loop_
 _symmetry_equiv_pos_site_id
 _symmetry_equiv_pos_as_xyz
  1  'x, y, z'
loop_
 _atom_site_type_symbol
 _atom_site_label
 _atom_site_symmetry_multiplicity
 _atom_site_fract_x
 _atom_site_fract_y
 _atom_site_fract_z
 _atom_site_occupancy
  Ga  Ga0  1  0.25000000  0.18209742  0.00000000  1
  Ga  Ga1  1  0.75000000  0.68209742  0.50000000  1
  Ga  Ga2  1  0.15765025  0.75000000  0.25000000  1
  Ga  Ga3  1  0.84234975  0.25000000  0.75000000  1
  Ga  Ga4  1  0.75000000  0.81790258  0.00000000  1
  Ga  Ga5  1  0.34234975  0.75000000  0.75000000  1
  Ga  Ga6  1  0.25000000  0.31790258  0.50000000  1
  Ga  Ga7  1  0.65765025  0.25000000  0.25000000  1
  Cl  Cl8  1  0.67014280  0.55417312  0.67980643  1
  Cl  Cl9  1  0.50631588  0.81188525  0.45859465  1
  Cl  Cl10  1  0.32985720  0.44582688  0.32019357  1
  Cl  Cl11  1  0.67014280  0.94582688  0.82019357  1
  Cl  Cl12  1  0.99368412  0.68811475  0.95859465  1
  Cl  Cl13  1  0.32985720  0.05417312  0.17980643  1
  Cl  Cl14  1  0.17014280  0.44582688  0.67980643  1
  Cl  Cl15  1  0.00631588  0.18811475  0.45859465  1
  Cl  Cl16  1  0.82985720  0.55417312  0.32019357  1
  Cl  Cl17  1  0.99368412  0.81188525  0.54140535  1
  Cl  Cl18  1  0.50631588  0.68811475  0.04140535  1
  Cl  Cl19  1  0.17014280  0.05417312  0.82019357  1
  Cl  Cl20  1  0.82985720  0.94582688  0.17980643  1
  Cl  Cl21  1  0.00631588  0.31188525  0.04140535  1
  Cl  Cl22  1  0.49368412  0.18811475  0.54140535  1
  Cl  Cl23  1  0.49368412  0.31188525  0.95859465  1
