# generated using pymatgen
data_CsAuF4
_symmetry_space_group_name_H-M   'P 1'
_cell_length_a   5.33731318
_cell_length_b   6.63777389
_cell_length_c   7.63664348
_cell_angle_alpha   115.77010833
_cell_angle_beta   110.45977990
_cell_angle_gamma   89.97626238
_symmetry_Int_Tables_number   1
_chemical_formula_structural   CsAuF4
_chemical_formula_sum   'Cs2 Au2 F8'
_cell_volume   224.56035684
_cell_formula_units_Z   2
loop_
 _symmetry_equiv_pos_site_id
 _symmetry_equiv_pos_as_xyz
  1  'x, y, z'
loop_
 _atom_site_type_symbol
 _atom_site_label
 _atom_site_symmetry_multiplicity
 _atom_site_fract_x
 _atom_site_fract_y
 _atom_site_fract_z
 _atom_site_occupancy
  Cs  Cs0  1  0.21640924  0.21649800  0.43309912  1
  Cs  Cs1  1  0.78359076  0.78350200  0.56690088  1
  Au  Au2  1  0.00000000  0.50000000  0.00000000  1
  Au  Au3  1  0.50000000  0.00000000  0.00000000  1
  F  F4  1  0.99999518  0.20826145  0.00020745  1
  F  F5  1  0.84681200  0.34617614  0.69340631  1
  F  F6  1  0.38950761  0.68698922  0.77858969  1
  F  F7  1  0.61068180  0.90905894  0.22184174  1
  F  F8  1  0.00000482  0.79173855  0.99979255  1
  F  F9  1  0.38931820  0.09094106  0.77815826  1
  F  F10  1  0.15318800  0.65382386  0.30659369  1
  F  F11  1  0.61049239  0.31301078  0.22141031  1
