# generated using pymatgen
data_K2MoAs2O9
_symmetry_space_group_name_H-M   'P 1'
_cell_length_a   13.90503430
_cell_length_b   7.45243428
_cell_length_c   9.54740464
_cell_angle_alpha   64.04308542
_cell_angle_beta   90.00000000
_cell_angle_gamma   90.00000000
_symmetry_Int_Tables_number   1
_chemical_formula_structural   K2MoAs2O9
_chemical_formula_sum   'K8 Mo4 As8 O36'
_cell_volume   889.55922669
_cell_formula_units_Z   4
loop_
 _symmetry_equiv_pos_site_id
 _symmetry_equiv_pos_as_xyz
  1  'x, y, z'
loop_
 _atom_site_type_symbol
 _atom_site_label
 _atom_site_symmetry_multiplicity
 _atom_site_fract_x
 _atom_site_fract_y
 _atom_site_fract_z
 _atom_site_occupancy
  K  K0  1  0.95259201  0.66341334  0.62572748  1
  K  K1  1  0.45259201  0.33658666  0.87427252  1
  K  K2  1  0.90985325  0.04012477  0.14172361  1
  K  K3  1  0.04740799  0.33658666  0.37427252  1
  K  K4  1  0.54740799  0.66341334  0.12572748  1
  K  K5  1  0.09014675  0.95987523  0.85827639  1
  K  K6  1  0.40985325  0.95987523  0.35827639  1
  K  K7  1  0.59014675  0.04012477  0.64172361  1
  Mo  Mo8  1  0.78371906  0.42490277  0.33053448  1
  Mo  Mo9  1  0.28371906  0.57509723  0.16946552  1
  Mo  Mo10  1  0.21628094  0.57509723  0.66946552  1
  Mo  Mo11  1  0.71628094  0.42490277  0.83053448  1
  As  As12  1  0.34154216  0.87067501  0.80562126  1
  As  As13  1  0.33410069  0.28568715  0.53129200  1
  As  As14  1  0.84154216  0.12932499  0.69437874  1
  As  As15  1  0.16589931  0.28568715  0.03129200  1
  As  As16  1  0.83410069  0.71431285  0.96870800  1
  As  As17  1  0.15845784  0.87067501  0.30562126  1
  As  As18  1  0.65845784  0.12932499  0.19437874  1
  As  As19  1  0.66589931  0.71431285  0.46870800  1
  O  O20  1  0.63602590  0.54933719  0.89242956  1
  O  O21  1  0.14075255  0.69762785  0.73984980  1
  O  O22  1  0.76275122  0.20346561  0.53979922  1
  O  O23  1  0.33941411  0.44857538  0.60982413  1
  O  O24  1  0.35924745  0.69762785  0.23984980  1
  O  O25  1  0.06295504  0.21737130  0.98532389  1
  O  O26  1  0.83941411  0.55142462  0.89017587  1
  O  O27  1  0.65578834  0.29049049  0.27444221  1
  O  O28  1  0.24698527  0.35456920  0.88039788  1
  O  O29  1  0.23724878  0.79653439  0.46020078  1
  O  O30  1  0.74698527  0.64543080  0.61960212  1
  O  O31  1  0.43704496  0.21737130  0.48532389  1
  O  O32  1  0.16058589  0.44857538  0.10982413  1
  O  O33  1  0.72699428  0.92347175  0.32538570  1
  O  O34  1  0.34421166  0.70950951  0.72555779  1
  O  O35  1  0.84421166  0.29049049  0.77444221  1
  O  O36  1  0.05426392  0.93690006  0.35188685  1
  O  O37  1  0.66058589  0.55142462  0.39017587  1
  O  O38  1  0.13602590  0.45066281  0.60757044  1
  O  O39  1  0.93704496  0.78262870  0.01467611  1
  O  O40  1  0.22699428  0.07652825  0.17461430  1
  O  O41  1  0.26275122  0.79653439  0.96020078  1
  O  O42  1  0.94573608  0.06309994  0.64811315  1
  O  O43  1  0.73724878  0.20346561  0.03979922  1
  O  O44  1  0.64075255  0.30237215  0.76015020  1
  O  O45  1  0.25301473  0.35456920  0.38039788  1
  O  O46  1  0.77300572  0.92347175  0.82538570  1
  O  O47  1  0.55426392  0.06309994  0.14811315  1
  O  O48  1  0.56295504  0.78262870  0.51467611  1
  O  O49  1  0.86397410  0.54933719  0.39242956  1
  O  O50  1  0.75301473  0.64543080  0.11960212  1
  O  O51  1  0.36397410  0.45066281  0.10757044  1
  O  O52  1  0.15578834  0.70950951  0.22555779  1
  O  O53  1  0.27300572  0.07652825  0.67461430  1
  O  O54  1  0.85924745  0.30237215  0.26015020  1
  O  O55  1  0.44573608  0.93690006  0.85188685  1
