# generated using pymatgen
data_Ca3V2O8
_symmetry_space_group_name_H-M   'P 1'
_cell_length_a   5.53271042
_cell_length_b   5.53271042
_cell_length_c   7.04140564
_cell_angle_alpha   67.28090852
_cell_angle_beta   67.28090852
_cell_angle_gamma   59.86687305
_symmetry_Int_Tables_number   1
_chemical_formula_structural   Ca3V2O8
_chemical_formula_sum   'Ca3 V2 O8'
_cell_volume   166.87926216
_cell_formula_units_Z   1
loop_
 _symmetry_equiv_pos_site_id
 _symmetry_equiv_pos_as_xyz
  1  'x, y, z'
loop_
 _atom_site_type_symbol
 _atom_site_label
 _atom_site_symmetry_multiplicity
 _atom_site_fract_x
 _atom_site_fract_y
 _atom_site_fract_z
 _atom_site_occupancy
  Ca  Ca0  1  0.80634027  0.80634027  0.58912913  1
  Ca  Ca1  1  0.19365973  0.19365973  0.41087087  1
  Ca  Ca2  1  -0.00000000  0.00000000  -0.00000000  1
  V  V3  1  0.59677298  0.59677298  0.21201611  1
  V  V4  1  0.40322702  0.40322702  0.78798389  1
  O  O5  1  0.73899388  0.22774003  0.30217689  1
  O  O6  1  0.68425503  0.68425503  0.94359769  1
  O  O7  1  0.26345432  0.26345432  0.69717725  1
  O  O8  1  0.22774003  0.73899388  0.30217689  1
  O  O9  1  0.26100612  0.77225997  0.69782311  1
  O  O10  1  0.77225997  0.26100612  0.69782311  1
  O  O11  1  0.31574497  0.31574497  0.05640231  1
  O  O12  1  0.73654568  0.73654568  0.30282275  1
