# generated using pymatgen
data_Cs3SbO3
_symmetry_space_group_name_H-M   'P 1'
_cell_length_a   9.20222971
_cell_length_b   9.20222971
_cell_length_c   9.20222971
_cell_angle_alpha   90.00000000
_cell_angle_beta   90.00000000
_cell_angle_gamma   90.00000000
_symmetry_Int_Tables_number   1
_chemical_formula_structural   Cs3SbO3
_chemical_formula_sum   'Cs12 Sb4 O12'
_cell_volume   779.25430519
_cell_formula_units_Z   4
loop_
 _symmetry_equiv_pos_site_id
 _symmetry_equiv_pos_as_xyz
  1  'x, y, z'
loop_
 _atom_site_type_symbol
 _atom_site_label
 _atom_site_symmetry_multiplicity
 _atom_site_fract_x
 _atom_site_fract_y
 _atom_site_fract_z
 _atom_site_occupancy
  Cs  Cs0  1  0.27765822  0.72234178  0.22234178  1
  Cs  Cs1  1  0.48308710  0.98308710  0.51691290  1
  Cs  Cs2  1  0.22234178  0.27765822  0.72234178  1
  Cs  Cs3  1  0.01691290  0.01691290  0.01691290  1
  Cs  Cs4  1  0.77299642  0.22700358  0.72700358  1
  Cs  Cs5  1  0.72700358  0.77299642  0.22700358  1
  Cs  Cs6  1  0.51691290  0.48308710  0.98308710  1
  Cs  Cs7  1  0.98308710  0.51691290  0.48308710  1
  Cs  Cs8  1  0.22700358  0.72700358  0.77299642  1
  Cs  Cs9  1  0.72234178  0.22234178  0.27765822  1
  Cs  Cs10  1  0.77765822  0.77765822  0.77765822  1
  Cs  Cs11  1  0.27299642  0.27299642  0.27299642  1
  Sb  Sb12  1  0.50259875  0.50259875  0.50259875  1
  Sb  Sb13  1  0.99740125  0.49740125  0.00259875  1
  Sb  Sb14  1  0.49740125  0.00259875  0.99740125  1
  Sb  Sb15  1  0.00259875  0.99740125  0.49740125  1
  O  O16  1  0.46223272  0.00469998  0.20602832  1
  O  O17  1  0.70602832  0.03776728  0.99530002  1
  O  O18  1  0.00469998  0.20602832  0.46223272  1
  O  O19  1  0.96223272  0.49530002  0.79397168  1
  O  O20  1  0.03776728  0.99530002  0.70602832  1
  O  O21  1  0.49530002  0.79397168  0.96223272  1
  O  O22  1  0.79397168  0.96223272  0.49530002  1
  O  O23  1  0.20602832  0.46223272  0.00469998  1
  O  O24  1  0.99530002  0.70602832  0.03776728  1
  O  O25  1  0.53776728  0.50469998  0.29397168  1
  O  O26  1  0.29397168  0.53776728  0.50469998  1
  O  O27  1  0.50469998  0.29397168  0.53776728  1
