# generated using pymatgen
data_Cs3Sm(PS4)2
_symmetry_space_group_name_H-M   'P 1'
_cell_length_a   7.02327500
_cell_length_b   15.65281200
_cell_length_c   15.82096829
_cell_angle_alpha   80.19510501
_cell_angle_beta   90.00000000
_cell_angle_gamma   90.00000000
_symmetry_Int_Tables_number   1
_chemical_formula_structural   Cs3Sm(PS4)2
_chemical_formula_sum   'Cs12 Sm4 P8 S32'
_cell_volume   1713.85758799
_cell_formula_units_Z   4
loop_
 _symmetry_equiv_pos_site_id
 _symmetry_equiv_pos_as_xyz
  1  'x, y, z'
loop_
 _atom_site_type_symbol
 _atom_site_label
 _atom_site_symmetry_multiplicity
 _atom_site_fract_x
 _atom_site_fract_y
 _atom_site_fract_z
 _atom_site_occupancy
  Cs  Cs0  1  0.74162500  0.27703600  0.87830600  1
  Cs  Cs1  1  0.74636900  0.45308100  0.61041700  1
  Cs  Cs2  1  0.24636900  0.04691900  0.88958300  1
  Cs  Cs3  1  0.24162500  0.22296400  0.62169400  1
  Cs  Cs4  1  0.24444000  0.39220500  0.02489100  1
  Cs  Cs5  1  0.25363100  0.54691900  0.38958300  1
  Cs  Cs6  1  0.75556000  0.60779500  0.97510900  1
  Cs  Cs7  1  0.75837500  0.77703600  0.37830600  1
  Cs  Cs8  1  0.74444000  0.10779500  0.47510900  1
  Cs  Cs9  1  0.25556000  0.89220500  0.52489100  1
  Cs  Cs10  1  0.75363100  0.95308100  0.11041700  1
  Cs  Cs11  1  0.25837500  0.72296400  0.12169400  1
  Sm  Sm12  1  0.76839400  0.87643400  0.77012000  1
  Sm  Sm13  1  0.26839400  0.62356600  0.72988000  1
  Sm  Sm14  1  0.73160600  0.37643400  0.27012000  1
  Sm  Sm15  1  0.23160600  0.12356600  0.22988000  1
  P  P16  1  0.74491600  0.08168500  0.72508600  1
  P  P17  1  0.27445900  0.28239200  0.36865900  1
  P  P18  1  0.75508400  0.58168500  0.22508600  1
  P  P19  1  0.72554100  0.71760800  0.63134100  1
  P  P20  1  0.24491600  0.41831500  0.77491400  1
  P  P21  1  0.77445900  0.21760800  0.13134100  1
  P  P22  1  0.25508400  0.91831500  0.27491400  1
  P  P23  1  0.22554100  0.78239200  0.86865900  1
  S  S24  1  0.98619600  0.51580900  0.18777000  1
  S  S25  1  0.24897600  0.15051500  0.40552900  1
  S  S26  1  0.50598000  0.33047300  0.42531600  1
  S  S27  1  0.33943500  0.30156200  0.23940800  1
  S  S28  1  0.48619600  0.98419100  0.31223000  1
  S  S29  1  0.26127400  0.79061700  0.32509700  1
  S  S30  1  0.49402000  0.66952700  0.57468400  1
  S  S31  1  0.01403000  0.97777400  0.31384100  1
  S  S32  1  0.25143000  0.95078000  0.14333200  1
  S  S33  1  0.46750600  0.84271400  0.90126800  1
  S  S34  1  0.00598000  0.16952700  0.07468400  1
  S  S35  1  0.48597000  0.47777400  0.81384100  1
  S  S36  1  0.51380400  0.01580900  0.68777000  1
  S  S37  1  0.53249400  0.15728600  0.09873200  1
  S  S38  1  0.73872600  0.20938300  0.67490300  1
  S  S39  1  0.66056500  0.69843800  0.76059200  1
  S  S40  1  0.98597000  0.02222600  0.68615900  1
  S  S41  1  0.51403000  0.52222600  0.18615900  1
  S  S42  1  0.83943500  0.19843800  0.26059200  1
  S  S43  1  0.03249400  0.34271400  0.40126800  1
  S  S44  1  0.96750600  0.65728600  0.59873200  1
  S  S45  1  0.16056500  0.80156200  0.73940800  1
  S  S46  1  0.74897600  0.34948500  0.09447100  1
  S  S47  1  0.76127400  0.70938300  0.17490300  1
  S  S48  1  0.25102400  0.65051500  0.90552900  1
  S  S49  1  0.24857000  0.45078000  0.64333200  1
  S  S50  1  0.01380400  0.48419100  0.81223000  1
  S  S51  1  0.75143000  0.54922000  0.35666800  1
  S  S52  1  0.99402000  0.83047300  0.92531600  1
  S  S53  1  0.23872600  0.29061700  0.82509700  1
  S  S54  1  0.74857000  0.04922000  0.85666800  1
  S  S55  1  0.75102400  0.84948500  0.59447100  1
