# generated using pymatgen
data_K3Nb3(BO6)2
_symmetry_space_group_name_H-M   'P 1'
_cell_length_a   3.96768675
_cell_length_b   15.30826983
_cell_length_c   17.67060250
_cell_angle_alpha   90.00000000
_cell_angle_beta   90.00000000
_cell_angle_gamma   90.00000000
_symmetry_Int_Tables_number   1
_chemical_formula_structural   K3Nb3(BO6)2
_chemical_formula_sum   'K12 Nb12 B8 O48'
_cell_volume   1073.28446516
_cell_formula_units_Z   4
loop_
 _symmetry_equiv_pos_site_id
 _symmetry_equiv_pos_as_xyz
  1  'x, y, z'
loop_
 _atom_site_type_symbol
 _atom_site_label
 _atom_site_symmetry_multiplicity
 _atom_site_fract_x
 _atom_site_fract_y
 _atom_site_fract_z
 _atom_site_occupancy
  K  K0  1  0.50687945  0.70198384  0.11598943  1
  K  K1  1  0.49795959  0.20198408  0.86622005  1
  K  K2  1  0.50204041  0.79801592  0.36622005  1
  K  K3  1  0.50204041  0.20198408  0.36622005  1
  K  K4  1  0.49427838  0.50000000  0.91912870  1
  K  K5  1  0.49312055  0.29801616  0.61598943  1
  K  K6  1  0.48653377  -0.00000000  0.66924012  1
  K  K7  1  0.49312055  0.70198384  0.61598943  1
  K  K8  1  0.50687945  0.29801616  0.11598943  1
  K  K9  1  0.51346623  -0.00000000  0.16924012  1
  K  K10  1  0.49795959  0.79801592  0.86622005  1
  K  K11  1  0.50572162  0.50000000  0.41912870  1
  Nb  Nb12  1  0.02682331  0.87624224  0.02906664  1
  Nb  Nb13  1  0.01552539  0.37623326  0.27903605  1
  Nb  Nb14  1  0.96694218  -0.00000000  0.84359059  1
  Nb  Nb15  1  0.97317669  0.12375776  0.52906664  1
  Nb  Nb16  1  0.01552539  0.62376674  0.27903605  1
  Nb  Nb17  1  0.02682331  0.12375776  0.02906664  1
  Nb  Nb18  1  0.03305782  -0.00000000  0.34359059  1
  Nb  Nb19  1  0.98447461  0.62376674  0.77903605  1
  Nb  Nb20  1  0.01401771  0.50000000  0.09339551  1
  Nb  Nb21  1  0.98447461  0.37623326  0.77903605  1
  Nb  Nb22  1  0.97317669  0.87624224  0.52906664  1
  Nb  Nb23  1  0.98598229  0.50000000  0.59339551  1
  B  B24  1  0.99718059  0.33342523  0.96715060  1
  B  B25  1  0.00778180  0.83336076  0.71721052  1
  B  B26  1  0.99221820  0.16663924  0.21721052  1
  B  B27  1  0.00281941  0.66657477  0.46715060  1
  B  B28  1  0.99718059  0.66657477  0.96715060  1
  B  B29  1  0.99221820  0.83336076  0.21721052  1
  B  B30  1  0.00778180  0.16663924  0.71721052  1
  B  B31  1  0.00281941  0.33342523  0.46715060  1
  O  O32  1  0.00215153  0.90635013  0.26142656  1
  O  O33  1  0.99631080  0.90935666  0.92188553  1
  O  O34  1  0.50473272  -0.00000000  0.33529095  1
  O  O35  1  0.00750527  0.15892558  0.64027114  1
  O  O36  1  0.97736909  0.40635031  0.01132573  1
  O  O37  1  0.00750527  0.84107442  0.64027114  1
  O  O38  1  -0.00215153  0.90635013  0.76142656  1
  O  O39  1  0.01879784  0.24736842  0.74984509  1
  O  O40  1  -0.00016765  -0.00000000  0.05776580  1
  O  O41  1  0.98120216  0.75263158  0.24984509  1
  O  O42  1  0.00544817  0.25261737  0.49971703  1
  O  O43  1  0.49815884  0.86801500  0.03308071  1
  O  O44  1  0.01976172  0.34128758  0.89038365  1
  O  O45  1  0.48671953  0.63203770  0.28316486  1
  O  O46  1  0.48489852  0.50000000  0.08505669  1
  O  O47  1  0.50184116  0.86801500  0.53308071  1
  O  O48  1  0.01976172  0.65871242  0.89038365  1
  O  O49  1  0.00368920  0.09064334  0.42188553  1
  O  O50  1  0.99455183  0.25261737  0.99971703  1
  O  O51  1  0.50184116  0.13198500  0.53308071  1
  O  O52  1  0.49815884  0.13198500  0.03308071  1
  O  O53  1  0.51328047  0.63203770  0.78316486  1
  O  O54  1  0.00016765  -0.00000000  0.55776580  1
  O  O55  1  0.01879784  0.75263158  0.74984509  1
  O  O56  1  0.99631080  0.09064334  0.92188553  1
  O  O57  1  0.98764018  0.40935982  0.17181414  1
  O  O58  1  0.49526728  -0.00000000  0.83529095  1
  O  O59  1  0.00368920  0.90935666  0.42188553  1
  O  O60  1  -0.00215153  0.09364987  0.76142656  1
  O  O61  1  0.98764018  0.59064018  0.17181414  1
  O  O62  1  0.01235982  0.40935982  0.67181414  1
  O  O63  1  0.97736909  0.59364969  0.01132573  1
  O  O64  1  0.98023828  0.65871242  0.39038365  1
  O  O65  1  0.51328047  0.36796230  0.78316486  1
  O  O66  1  0.00215153  0.09364987  0.26142656  1
  O  O67  1  0.01149529  0.50000000  0.80762116  1
  O  O68  1  0.98120216  0.24736842  0.24984509  1
  O  O69  1  0.51510048  0.50000000  0.58505669  1
  O  O70  1  0.02263091  0.59364969  0.51132573  1
  O  O71  1  0.98023828  0.34128758  0.39038365  1
  O  O72  1  0.48671953  0.36796230  0.28316486  1
  O  O73  1  0.00544817  0.74738263  0.49971703  1
  O  O74  1  0.99249473  0.15892558  0.14027114  1
  O  O75  1  0.01235982  0.59064018  0.67181414  1
  O  O76  1  0.99249473  0.84107442  0.14027114  1
  O  O77  1  0.02263091  0.40635031  0.51132573  1
  O  O78  1  0.99455183  0.74738263  0.99971703  1
  O  O79  1  0.98850471  0.50000000  0.30762116  1
