# generated using pymatgen
data_Cs3Sc2Cl9
_symmetry_space_group_name_H-M   'P 1'
_cell_length_a   9.56133649
_cell_length_b   9.56133649
_cell_length_c   9.56133569
_cell_angle_alpha   83.99302310
_cell_angle_beta   83.99302310
_cell_angle_gamma   83.99301866
_symmetry_Int_Tables_number   1
_chemical_formula_structural   Cs3Sc2Cl9
_chemical_formula_sum   'Cs6 Sc4 Cl18'
_cell_volume   860.62842661
_cell_formula_units_Z   2
loop_
 _symmetry_equiv_pos_site_id
 _symmetry_equiv_pos_as_xyz
  1  'x, y, z'
loop_
 _atom_site_type_symbol
 _atom_site_label
 _atom_site_symmetry_multiplicity
 _atom_site_fract_x
 _atom_site_fract_y
 _atom_site_fract_z
 _atom_site_occupancy
  Cs  Cs0  1  0.25000000  0.91176978  0.58823022  1
  Cs  Cs1  1  0.08823022  0.41176978  0.75000000  1
  Cs  Cs2  1  0.91176978  0.58823022  0.25000000  1
  Cs  Cs3  1  0.41176978  0.75000000  0.08823022  1
  Cs  Cs4  1  0.58823022  0.25000000  0.91176978  1
  Cs  Cs5  1  0.75000000  0.08823022  0.41176978  1
  Sc  Sc6  1  0.15326653  0.15326653  0.15326653  1
  Sc  Sc7  1  0.65326653  0.65326653  0.65326653  1
  Sc  Sc8  1  0.34673347  0.34673347  0.34673347  1
  Sc  Sc9  1  0.84673347  0.84673347  0.84673347  1
  Cl  Cl10  1  0.40098571  0.09901429  0.25000000  1
  Cl  Cl11  1  0.25000000  0.40098571  0.09901429  1
  Cl  Cl12  1  0.24296253  0.57383908  0.41186002  1
  Cl  Cl13  1  0.92616092  0.25703747  0.08813998  1
  Cl  Cl14  1  0.91186002  0.07383908  0.74296253  1
  Cl  Cl15  1  0.57383908  0.41186002  0.24296253  1
  Cl  Cl16  1  0.09901429  0.25000000  0.40098571  1
  Cl  Cl17  1  0.42616092  0.58813998  0.75703747  1
  Cl  Cl18  1  0.41186002  0.24296253  0.57383908  1
  Cl  Cl19  1  0.90098571  0.75000000  0.59901429  1
  Cl  Cl20  1  0.59901429  0.90098571  0.75000000  1
  Cl  Cl21  1  0.75703747  0.42616092  0.58813998  1
  Cl  Cl22  1  0.75000000  0.59901429  0.90098571  1
  Cl  Cl23  1  0.07383908  0.74296253  0.91186002  1
  Cl  Cl24  1  0.58813998  0.75703747  0.42616092  1
  Cl  Cl25  1  0.25703747  0.08813998  0.92616092  1
  Cl  Cl26  1  0.08813998  0.92616092  0.25703747  1
  Cl  Cl27  1  0.74296253  0.91186002  0.07383908  1
