# generated using pymatgen
data_KAlH4
_symmetry_space_group_name_H-M   'P 1'
_cell_length_a   7.30367153
_cell_length_b   7.30367153
_cell_length_c   7.30367153
_cell_angle_alpha   137.10787733
_cell_angle_beta   137.10787733
_cell_angle_gamma   62.27211089
_symmetry_Int_Tables_number   1
_chemical_formula_structural   KAlH4
_chemical_formula_sum   'K2 Al2 H8'
_cell_volume   178.32002412
_cell_formula_units_Z   2
loop_
 _symmetry_equiv_pos_site_id
 _symmetry_equiv_pos_as_xyz
  1  'x, y, z'
loop_
 _atom_site_type_symbol
 _atom_site_label
 _atom_site_symmetry_multiplicity
 _atom_site_fract_x
 _atom_site_fract_y
 _atom_site_fract_z
 _atom_site_occupancy
  K  K0  1  0.37500000  0.12500000  0.25000000  1
  K  K1  1  0.62500000  0.87500000  0.75000000  1
  Al  Al2  1  0.87500000  0.62500000  0.25000000  1
  Al  Al3  1  0.12500000  0.37500000  0.75000000  1
  H  H4  1  0.18016398  0.60137911  0.38538820  1
  H  H5  1  0.71599291  0.79477777  0.11461180  1
  H  H6  1  0.29477777  0.68016398  0.07878487  1
  H  H7  1  0.10137911  0.21599291  0.42121513  1
  H  H8  1  0.81983602  0.39862089  0.61461180  1
  H  H9  1  0.28400709  0.20522223  0.88538820  1
  H  H10  1  0.70522223  0.31983602  0.92121513  1
  H  H11  1  0.89862089  0.78400709  0.57878487  1
