# generated using pymatgen
data_MgUO4
_symmetry_space_group_name_H-M   'P 1'
_cell_length_a   5.85897030
_cell_length_b   5.85897030
_cell_length_c   5.85897030
_cell_angle_alpha   111.18989940
_cell_angle_beta   110.20569178
_cell_angle_gamma   107.04653847
_symmetry_Int_Tables_number   1
_chemical_formula_structural   MgUO4
_chemical_formula_sum   'Mg2 U2 O8'
_cell_volume   154.60653573
_cell_formula_units_Z   2
loop_
 _symmetry_equiv_pos_site_id
 _symmetry_equiv_pos_as_xyz
  1  'x, y, z'
loop_
 _atom_site_type_symbol
 _atom_site_label
 _atom_site_symmetry_multiplicity
 _atom_site_fract_x
 _atom_site_fract_y
 _atom_site_fract_z
 _atom_site_occupancy
  Mg  Mg0  1  0.50000000  0.00000000  0.50000000  1
  Mg  Mg1  1  0.00000000  0.50000000  0.50000000  1
  U  U2  1  0.26406900  0.25000000  0.01406900  1
  U  U3  1  0.73593100  0.75000000  0.98593100  1
  O  O4  1  0.29805700  0.48934000  0.80871700  1
  O  O5  1  0.70194300  0.51066000  0.19128300  1
  O  O6  1  0.81937800  0.01066000  0.80871700  1
  O  O7  1  0.18062200  0.98934000  0.19128300  1
  O  O8  1  0.26440800  0.95224100  0.71664800  1
  O  O9  1  0.73559200  0.45224100  0.68783300  1
  O  O10  1  0.26440800  0.54775900  0.31216700  1
  O  O11  1  0.73559200  0.04775900  0.28335200  1
