# generated using pymatgen
data_Cs2SnCl6
_symmetry_space_group_name_H-M   'P 1'
_cell_length_a   7.41973152
_cell_length_b   7.41973322
_cell_length_c   7.41973315
_cell_angle_alpha   59.99998963
_cell_angle_beta   60.00005836
_cell_angle_gamma   60.00005093
_symmetry_Int_Tables_number   1
_chemical_formula_structural   Cs2SnCl6
_chemical_formula_sum   'Cs2 Sn1 Cl6'
_cell_volume   288.83518313
_cell_formula_units_Z   1
loop_
 _symmetry_equiv_pos_site_id
 _symmetry_equiv_pos_as_xyz
  1  'x, y, z'
loop_
 _atom_site_type_symbol
 _atom_site_label
 _atom_site_symmetry_multiplicity
 _atom_site_fract_x
 _atom_site_fract_y
 _atom_site_fract_z
 _atom_site_occupancy
  Cs  Cs0  1  0.25000000  0.25000000  0.25000000  1
  Cs  Cs1  1  0.75000000  0.75000000  0.75000000  1
  Sn  Sn2  1  -0.00000000  -0.00000000  0.00000000  1
  Cl  Cl3  1  0.23384155  0.76615845  0.23384155  1
  Cl  Cl4  1  0.23384155  0.23384155  0.76615845  1
  Cl  Cl5  1  0.76615745  0.23384255  0.23384155  1
  Cl  Cl6  1  0.76615845  0.23384155  0.76615845  1
  Cl  Cl7  1  0.76615845  0.76615845  0.23384155  1
  Cl  Cl8  1  0.23384155  0.76615845  0.76615845  1
