# generated using pymatgen
data_Pr(HO)3
_symmetry_space_group_name_H-M   'P 1'
_cell_length_a   3.76365218
_cell_length_b   6.46682806
_cell_length_c   6.46681856
_cell_angle_alpha   120.00029260
_cell_angle_beta   90.00000000
_cell_angle_gamma   90.00000000
_symmetry_Int_Tables_number   1
_chemical_formula_structural   Pr(HO)3
_chemical_formula_sum   'Pr2 H6 O6'
_cell_volume   136.30783582
_cell_formula_units_Z   2
loop_
 _symmetry_equiv_pos_site_id
 _symmetry_equiv_pos_as_xyz
  1  'x, y, z'
loop_
 _atom_site_type_symbol
 _atom_site_label
 _atom_site_symmetry_multiplicity
 _atom_site_fract_x
 _atom_site_fract_y
 _atom_site_fract_z
 _atom_site_occupancy
  Pr  Pr0  1  0.25000000  0.66666534  0.33333237  1
  Pr  Pr1  1  0.75000000  0.33333466  0.66666763  1
  H  H2  1  0.75000000  0.86555001  0.72511565  1
  H  H3  1  0.75000000  0.27488478  0.14043521  1
  H  H4  1  0.75000000  0.85956538  0.13445873  1
  H  H5  1  0.25000000  0.13444999  0.27488435  1
  H  H6  1  0.25000000  0.72511522  0.85956479  1
  H  H7  1  0.25000000  0.14043462  0.86554127  1
  O  O8  1  0.75000000  0.91820663  0.60924963  1
  O  O9  1  0.75000000  0.39075085  0.30895941  1
  O  O10  1  0.75000000  0.69104011  0.08179470  1
  O  O11  1  0.25000000  0.08179337  0.39075037  1
  O  O12  1  0.25000000  0.60924915  0.69104059  1
  O  O13  1  0.25000000  0.30895989  0.91820530  1
