# generated using pymatgen
data_Al2PbSe4
_symmetry_space_group_name_H-M   'P 1'
_cell_length_a   6.28884662
_cell_length_b   6.28884752
_cell_length_c   10.94795900
_cell_angle_alpha   90.00000000
_cell_angle_beta   90.00000000
_cell_angle_gamma   120.69404548
_symmetry_Int_Tables_number   1
_chemical_formula_structural   Al2PbSe4
_chemical_formula_sum   'Al4 Pb2 Se8'
_cell_volume   372.32814657
_cell_formula_units_Z   2
loop_
 _symmetry_equiv_pos_site_id
 _symmetry_equiv_pos_as_xyz
  1  'x, y, z'
loop_
 _atom_site_type_symbol
 _atom_site_label
 _atom_site_symmetry_multiplicity
 _atom_site_fract_x
 _atom_site_fract_y
 _atom_site_fract_z
 _atom_site_occupancy
  Al  Al0  1  0.23908359  0.75843109  0.00000000  1
  Al  Al1  1  0.24156891  0.76091641  0.50000000  1
  Al  Al2  1  0.75843109  0.23908359  0.50000000  1
  Al  Al3  1  0.76091641  0.24156891  0.00000000  1
  Pb  Pb4  1  0.50000000  0.50000000  0.25000000  1
  Pb  Pb5  1  0.50000000  0.50000000  0.75000000  1
  Se  Se6  1  0.00000000  0.50000000  0.16714294  1
  Se  Se7  1  0.18199610  0.34908532  0.50000000  1
  Se  Se8  1  0.50000000  -0.00000000  0.33285706  1
  Se  Se9  1  0.34908532  0.18199610  0.00000000  1
  Se  Se10  1  0.65091468  0.81800390  0.00000000  1
  Se  Se11  1  0.50000000  -0.00000000  0.66714294  1
  Se  Se12  1  0.81800390  0.65091468  0.50000000  1
  Se  Se13  1  0.00000000  0.50000000  0.83285706  1
