# generated using pymatgen
data_Rb2CuCl3
_symmetry_space_group_name_H-M   'P 1'
_cell_length_a   4.20110588
_cell_length_b   12.55221055
_cell_length_c   12.98827930
_cell_angle_alpha   90.00000000
_cell_angle_beta   90.00000000
_cell_angle_gamma   90.00000000
_symmetry_Int_Tables_number   1
_chemical_formula_structural   Rb2CuCl3
_chemical_formula_sum   'Rb8 Cu4 Cl12'
_cell_volume   684.91308252
_cell_formula_units_Z   4
loop_
 _symmetry_equiv_pos_site_id
 _symmetry_equiv_pos_as_xyz
  1  'x, y, z'
loop_
 _atom_site_type_symbol
 _atom_site_label
 _atom_site_symmetry_multiplicity
 _atom_site_fract_x
 _atom_site_fract_y
 _atom_site_fract_z
 _atom_site_occupancy
  Rb  Rb0  1  0.75000000  0.32744692  0.02562512  1
  Rb  Rb1  1  0.25000000  0.17255308  0.52562512  1
  Rb  Rb2  1  0.75000000  0.82744692  0.47437488  1
  Rb  Rb3  1  0.25000000  0.51317809  0.32672326  1
  Rb  Rb4  1  0.75000000  0.98682191  0.82672326  1
  Rb  Rb5  1  0.25000000  0.67255308  0.97437488  1
  Rb  Rb6  1  0.75000000  0.48682191  0.67327674  1
  Rb  Rb7  1  0.25000000  0.01317809  0.17327674  1
  Cu  Cu8  1  0.75000000  0.24365239  0.30861996  1
  Cu  Cu9  1  0.25000000  0.75634761  0.69138004  1
  Cu  Cu10  1  0.75000000  0.74365239  0.19138004  1
  Cu  Cu11  1  0.25000000  0.25634761  0.80861996  1
  Cl  Cl12  1  0.25000000  0.93396160  0.64029928  1
  Cl  Cl13  1  0.75000000  0.35981052  0.44766192  1
  Cl  Cl14  1  0.25000000  0.64018948  0.55233808  1
  Cl  Cl15  1  0.25000000  0.77239380  0.27754129  1
  Cl  Cl16  1  0.25000000  0.43396160  0.85970072  1
  Cl  Cl17  1  0.75000000  0.85981052  0.05233808  1
  Cl  Cl18  1  0.75000000  0.06603840  0.35970072  1
  Cl  Cl19  1  0.25000000  0.27239380  0.22245871  1
  Cl  Cl20  1  0.75000000  0.72760620  0.77754129  1
  Cl  Cl21  1  0.75000000  0.22760620  0.72245871  1
  Cl  Cl22  1  0.25000000  0.14018948  0.94766192  1
  Cl  Cl23  1  0.75000000  0.56603840  0.14029928  1
