# generated using pymatgen
data_P2WO8
_symmetry_space_group_name_H-M   'P 1'
_cell_length_a   8.40224001
_cell_length_b   8.40224001
_cell_length_c   6.89729013
_cell_angle_alpha   78.52144654
_cell_angle_beta   78.52144654
_cell_angle_gamma   35.74825030
_symmetry_Int_Tables_number   1
_chemical_formula_structural   P2WO8
_chemical_formula_sum   'P4 W2 O16'
_cell_volume   278.18982049
_cell_formula_units_Z   2
loop_
 _symmetry_equiv_pos_site_id
 _symmetry_equiv_pos_as_xyz
  1  'x, y, z'
loop_
 _atom_site_type_symbol
 _atom_site_label
 _atom_site_symmetry_multiplicity
 _atom_site_fract_x
 _atom_site_fract_y
 _atom_site_fract_z
 _atom_site_occupancy
  P  P0  1  0.66362706  0.66362706  0.38338030  1
  P  P1  1  0.66526533  0.66526533  0.95113570  1
  P  P2  1  0.33637294  0.33637294  0.61661970  1
  P  P3  1  0.33473467  0.33473467  0.04886430  1
  W  W4  1  0.89489616  0.89489616  0.29800290  1
  W  W5  1  0.10510384  0.10510384  0.70199710  1
  O  O6  1  0.85050841  0.38089207  0.89002162  1
  O  O7  1  0.61910793  0.14949159  0.10997838  1
  O  O8  1  0.36786453  0.36786453  0.81569791  1
  O  O9  1  0.38089207  0.85050841  0.89002162  1
  O  O10  1  0.85785695  0.38365523  0.49479548  1
  O  O11  1  0.61634477  0.14214305  0.50520452  1
  O  O12  1  0.63213547  0.63213547  0.18430209  1
  O  O13  1  0.14949159  0.61910793  0.10997838  1
  O  O14  1  0.75766971  0.75766971  0.87884201  1
  O  O15  1  0.00341884  0.00341884  0.25409153  1
  O  O16  1  0.24220265  0.24220265  0.64215960  1
  O  O17  1  0.75779735  0.75779735  0.35784040  1
  O  O18  1  0.38365523  0.85785695  0.49479548  1
  O  O19  1  0.24233029  0.24233029  0.12115799  1
  O  O20  1  0.14214305  0.61634477  0.50520452  1
  O  O21  1  0.99658116  0.99658116  0.74590847  1
