# generated using pymatgen
data_Cs2TeO3
_symmetry_space_group_name_H-M   'P 1'
_cell_length_a   6.78976897
_cell_length_b   6.78976790
_cell_length_c   7.99909324
_cell_angle_alpha   90.00000000
_cell_angle_beta   90.00000000
_cell_angle_gamma   120.00000528
_symmetry_Int_Tables_number   1
_chemical_formula_structural   Cs2TeO3
_chemical_formula_sum   'Cs4 Te2 O6'
_cell_volume   319.36056887
_cell_formula_units_Z   2
loop_
 _symmetry_equiv_pos_site_id
 _symmetry_equiv_pos_as_xyz
  1  'x, y, z'
loop_
 _atom_site_type_symbol
 _atom_site_label
 _atom_site_symmetry_multiplicity
 _atom_site_fract_x
 _atom_site_fract_y
 _atom_site_fract_z
 _atom_site_occupancy
  Cs  Cs0  1  -0.00000000  -0.00000000  0.00000000  1
  Cs  Cs1  1  0.66666700  0.33333300  0.63455577  1
  Cs  Cs2  1  0.33333300  0.66666700  0.36544423  1
  Cs  Cs3  1  -0.00000000  -0.00000000  0.50000000  1
  Te  Te4  1  0.66666700  0.33333300  0.16314609  1
  Te  Te5  1  0.33333300  0.66666700  0.83685391  1
  O  O6  1  0.14642526  0.75562531  0.73115511  1
  O  O7  1  0.39079995  0.24437469  0.26884489  1
  O  O8  1  0.75562531  0.14642526  0.26884489  1
  O  O9  1  0.85357474  0.60920005  0.26884489  1
  O  O10  1  0.24437469  0.39079995  0.73115511  1
  O  O11  1  0.60920005  0.85357474  0.73115511  1
