# generated using pymatgen
data_CdI2
_symmetry_space_group_name_H-M   'P 1'
_cell_length_a   4.28790825
_cell_length_b   4.28790825
_cell_length_c   109.15645071
_cell_angle_alpha   90.00000000
_cell_angle_beta   90.00000000
_cell_angle_gamma   119.99999457
_symmetry_Int_Tables_number   1
_chemical_formula_structural   CdI2
_chemical_formula_sum   'Cd15 I30'
_cell_volume   1738.08506963
_cell_formula_units_Z   15
loop_
 _symmetry_equiv_pos_site_id
 _symmetry_equiv_pos_as_xyz
  1  'x, y, z'
loop_
 _atom_site_type_symbol
 _atom_site_label
 _atom_site_symmetry_multiplicity
 _atom_site_fract_x
 _atom_site_fract_y
 _atom_site_fract_z
 _atom_site_occupancy
  Cd  Cd0  1  0.00000000  0.00000000  0.01665334  1
  Cd  Cd1  1  0.00000000  0.00000000  0.81666180  1
  Cd  Cd2  1  0.33333300  0.66666700  0.61665892  1
  Cd  Cd3  1  0.00000000  0.00000000  0.68333103  1
  Cd  Cd4  1  0.33333300  0.66666700  0.48332275  1
  Cd  Cd5  1  0.33333300  0.66666700  0.95000183  1
  Cd  Cd6  1  0.00000000  0.00000000  0.55005039  1
  Cd  Cd7  1  0.00000000  0.00000000  0.28333207  1
  Cd  Cd8  1  0.33333300  0.66666700  0.21665034  1
  Cd  Cd9  1  0.33333300  0.66666700  0.08333511  1
  Cd  Cd10  1  0.00000000  0.00000000  0.14999683  1
  Cd  Cd11  1  0.33333300  0.66666700  0.88332860  1
  Cd  Cd12  1  0.00000000  0.00000000  0.41665130  1
  Cd  Cd13  1  0.33333300  0.66666700  0.74998234  1
  Cd  Cd14  1  0.33333300  0.66666700  0.34998369  1
  I  I15  1  0.66666700  0.33333300  0.56579081  1
  I  I16  1  0.33333300  0.66666700  0.40089071  1
  I  I17  1  0.66666700  0.33333300  0.43244226  1
  I  I18  1  0.00000000  0.00000000  0.33422353  1
  I  I19  1  0.66666700  0.33333300  0.36577484  1
  I  I20  1  0.66666700  0.33333300  0.89910944  1
  I  I21  1  0.66666700  0.33333300  0.96577603  1
  I  I22  1  0.66666700  0.33333300  0.23244140  1
  I  I23  1  0.33333300  0.66666700  0.53427583  1
  I  I24  1  0.66666700  0.33333300  0.69910758  1
  I  I25  1  0.00000000  0.00000000  0.86755695  1
  I  I26  1  0.66666700  0.33333300  0.76577493  1
  I  I27  1  0.33333300  0.66666700  0.66755702  1
  I  I28  1  0.33333300  0.66666700  0.80088986  1
  I  I29  1  0.00000000  -0.00000000  0.46755599  1
  I  I30  1  -0.00000000  0.00000000  0.73422248  1
  I  I31  1  0.66666700  0.33333300  0.63244239  1
  I  I32  1  0.00000000  0.00000000  0.20089085  1
  I  I33  1  0.66666700  0.33333300  0.09911098  1
  I  I34  1  0.00000000  0.00000000  0.60089016  1
  I  I35  1  0.33333300  0.66666700  0.00089095  1
  I  I36  1  0.33333300  0.66666700  0.13422227  1
  I  I37  1  -0.00000000  0.00000000  0.06755751  1
  I  I38  1  0.66666700  0.33333300  0.03244285  1
  I  I39  1  0.33333300  0.66666700  0.26755651  1
  I  I40  1  0.66666700  0.33333300  0.29910745  1
  I  I41  1  0.00000000  0.00000000  0.93422459  1
  I  I42  1  0.66666700  0.33333300  0.83244348  1
  I  I43  1  0.66666700  0.33333300  0.16577562  1
  I  I44  1  0.66666700  0.33333300  0.49911038  1
