# generated using pymatgen
data_FeBiO3
_symmetry_space_group_name_H-M   'P 1'
_cell_length_a   5.43632513
_cell_length_b   5.67645136
_cell_length_c   7.79673188
_cell_angle_alpha   89.99980781
_cell_angle_beta   89.99999455
_cell_angle_gamma   89.99996887
_symmetry_Int_Tables_number   1
_chemical_formula_structural   FeBiO3
_chemical_formula_sum   'Fe4 Bi4 O12'
_cell_volume   240.59962335
_cell_formula_units_Z   4
loop_
 _symmetry_equiv_pos_site_id
 _symmetry_equiv_pos_as_xyz
  1  'x, y, z'
loop_
 _atom_site_type_symbol
 _atom_site_label
 _atom_site_symmetry_multiplicity
 _atom_site_fract_x
 _atom_site_fract_y
 _atom_site_fract_z
 _atom_site_occupancy
  Fe  Fe0  1  0.49999921  0.99999713  0.00000113  1
  Fe  Fe1  1  -0.00000038  0.50000259  0.50000046  1
  Fe  Fe2  1  0.49999907  -0.00000245  0.50000018  1
  Fe  Fe3  1  0.99999901  0.50000127  0.99999958  1
  Bi  Bi4  1  0.48961770  0.44719707  0.74999811  1
  Bi  Bi5  1  0.98962167  0.05280298  0.25000159  1
  Bi  Bi6  1  0.51037928  0.55279999  0.25000221  1
  Bi  Bi7  1  0.01038003  0.94719856  0.74999831  1
  O  O8  1  0.39935457  0.97068122  0.24999868  1
  O  O9  1  0.60064467  0.02931995  0.75000175  1
  O  O10  1  0.89935452  0.52931872  0.75000062  1
  O  O11  1  0.10064454  0.47067962  0.24999928  1
  O  O12  1  0.30733603  0.69729870  0.54840156  1
  O  O13  1  0.19266667  0.19730147  0.95159838  1
  O  O14  1  0.69266464  0.30269839  0.04840101  1
  O  O15  1  0.80733760  0.80270064  0.45159979  1
  O  O16  1  0.30733398  0.69730205  0.95159846  1
  O  O17  1  0.69266673  0.30270005  0.45159861  1
  O  O18  1  0.19266534  0.19730093  0.54840168  1
  O  O19  1  0.80733314  0.80269911  0.04840163  1
