# generated using pymatgen
data_HPbClO
_symmetry_space_group_name_H-M   'P 1'
_cell_length_a   5.78371612
_cell_length_b   5.78371612
_cell_length_c   7.29307289
_cell_angle_alpha   65.03598414
_cell_angle_beta   65.03598414
_cell_angle_gamma   40.65087010
_symmetry_Int_Tables_number   1
_chemical_formula_structural   HPbClO
_chemical_formula_sum   'H2 Pb2 Cl2 O2'
_cell_volume   141.92267680
_cell_formula_units_Z   2
loop_
 _symmetry_equiv_pos_site_id
 _symmetry_equiv_pos_as_xyz
  1  'x, y, z'
loop_
 _atom_site_type_symbol
 _atom_site_label
 _atom_site_symmetry_multiplicity
 _atom_site_fract_x
 _atom_site_fract_y
 _atom_site_fract_z
 _atom_site_occupancy
  H  H0  1  0.11725173  0.11725173  0.39152899  1
  H  H1  1  0.88274827  0.88274827  0.60847101  1
  Pb  Pb2  1  0.17368204  0.17368204  0.75861177  1
  Pb  Pb3  1  0.82631796  0.82631796  0.24138823  1
  Cl  Cl4  1  0.43282427  0.43282427  0.81139594  1
  Cl  Cl5  1  0.56717573  0.56717573  0.18860406  1
  O  O6  1  0.19927283  0.19927283  0.41312657  1
  O  O7  1  0.80072717  0.80072717  0.58687343  1
