# generated using pymatgen
data_Rb2H4Pt
_symmetry_space_group_name_H-M   'P 1'
_cell_length_a   5.86185330
_cell_length_b   5.86185330
_cell_length_c   8.40442138
_cell_angle_alpha   90.00000000
_cell_angle_beta   90.00000000
_cell_angle_gamma   90.00000000
_symmetry_Int_Tables_number   1
_chemical_formula_structural   Rb2H4Pt
_chemical_formula_sum   'Rb4 H8 Pt2'
_cell_volume   288.78704700
_cell_formula_units_Z   2
loop_
 _symmetry_equiv_pos_site_id
 _symmetry_equiv_pos_as_xyz
  1  'x, y, z'
loop_
 _atom_site_type_symbol
 _atom_site_label
 _atom_site_symmetry_multiplicity
 _atom_site_fract_x
 _atom_site_fract_y
 _atom_site_fract_z
 _atom_site_occupancy
  Rb  Rb0  1  0.00000000  0.50000000  0.25000000  1
  Rb  Rb1  1  0.50000000  0.00000000  0.75000000  1
  Rb  Rb2  1  0.00000000  0.50000000  0.75000000  1
  Rb  Rb3  1  0.50000000  0.00000000  0.25000000  1
  H  H4  1  0.50000000  0.50000000  0.30375720  1
  H  H5  1  -0.00000000  0.00000000  0.80375720  1
  H  H6  1  0.50000000  0.50000000  0.69624280  1
  H  H7  1  -0.00000000  0.00000000  0.19624280  1
  H  H8  1  0.30068868  0.69931132  0.50000000  1
  H  H9  1  0.69931132  0.30068868  0.50000000  1
  H  H10  1  0.19931132  0.19931132  -0.00000000  1
  H  H11  1  0.80068868  0.80068868  -0.00000000  1
  Pt  Pt12  1  0.50000000  0.50000000  0.50000000  1
  Pt  Pt13  1  0.00000000  -0.00000000  -0.00000000  1
