# generated using pymatgen
data_GdHO2
_symmetry_space_group_name_H-M   'P 1'
_cell_length_a   6.08175873
_cell_length_b   3.70898442
_cell_length_c   4.34497906
_cell_angle_alpha   90.00000000
_cell_angle_beta   108.76670283
_cell_angle_gamma   90.00000000
_symmetry_Int_Tables_number   1
_chemical_formula_structural   GdHO2
_chemical_formula_sum   'Gd2 H2 O4'
_cell_volume   92.79975345
_cell_formula_units_Z   2
loop_
 _symmetry_equiv_pos_site_id
 _symmetry_equiv_pos_as_xyz
  1  'x, y, z'
loop_
 _atom_site_type_symbol
 _atom_site_label
 _atom_site_symmetry_multiplicity
 _atom_site_fract_x
 _atom_site_fract_y
 _atom_site_fract_z
 _atom_site_occupancy
  Gd  Gd0  1  0.19042036  0.25000000  0.33314620  1
  Gd  Gd1  1  0.80957964  0.75000000  0.66685380  1
  H  H2  1  0.57812956  0.25000000  0.98233113  1
  H  H3  1  0.42187044  0.75000000  0.01766887  1
  O  O4  1  0.04810269  0.25000000  0.76483481  1
  O  O5  1  0.95189731  0.75000000  0.23516519  1
  O  O6  1  0.56161168  0.25000000  0.75373005  1
  O  O7  1  0.43838832  0.75000000  0.24626995  1
