# generated using pymatgen
data_Mg(GaS2)2
_symmetry_space_group_name_H-M   'P 1'
_cell_length_a   13.00259802
_cell_length_b   13.00259802
_cell_length_c   6.41419210
_cell_angle_alpha   80.94457248
_cell_angle_beta   80.94457248
_cell_angle_gamma   120.89628730
_symmetry_Int_Tables_number   1
_chemical_formula_structural   Mg(GaS2)2
_chemical_formula_sum   'Mg6 Ga12 S24'
_cell_volume   881.89686526
_cell_formula_units_Z   6
loop_
 _symmetry_equiv_pos_site_id
 _symmetry_equiv_pos_as_xyz
  1  'x, y, z'
loop_
 _atom_site_type_symbol
 _atom_site_label
 _atom_site_symmetry_multiplicity
 _atom_site_fract_x
 _atom_site_fract_y
 _atom_site_fract_z
 _atom_site_occupancy
  Mg  Mg0  1  0.87064027  0.12935973  0.75000000  1
  Mg  Mg1  1  0.12935973  0.87064027  0.25000000  1
  Mg  Mg2  1  0.04441517  0.95558483  0.75000000  1
  Mg  Mg3  1  0.95558483  0.04441517  0.25000000  1
  Mg  Mg4  1  0.21856836  0.78143164  0.75000000  1
  Mg  Mg5  1  0.78143164  0.21856836  0.25000000  1
  Ga  Ga6  1  0.58467161  0.83454877  0.61628001  1
  Ga  Ga7  1  0.16545123  0.41532839  0.88371999  1
  Ga  Ga8  1  0.41532839  0.16545123  0.38371999  1
  Ga  Ga9  1  0.83454877  0.58467161  0.11628001  1
  Ga  Ga10  1  0.75405440  0.67337512  0.61561362  1
  Ga  Ga11  1  0.32662488  0.24594560  0.88438638  1
  Ga  Ga12  1  0.24594560  0.32662488  0.38438638  1
  Ga  Ga13  1  0.67337512  0.75405440  0.11561362  1
  Ga  Ga14  1  0.88628495  0.48521379  0.64504219  1
  Ga  Ga15  1  0.51478621  0.11371505  0.85495781  1
  Ga  Ga16  1  0.11371505  0.51478621  0.35495781  1
  Ga  Ga17  1  0.48521379  0.88628495  0.14504219  1
  S  S18  1  0.75946906  0.02396497  0.48095930  1
  S  S19  1  0.97603503  0.24053094  0.01904070  1
  S  S20  1  0.24053094  0.97603503  0.51904070  1
  S  S21  1  0.02396497  0.75946906  0.98095930  1
  S  S22  1  0.93696051  0.84957654  0.48129562  1
  S  S23  1  0.15042346  0.06303949  0.01870438  1
  S  S24  1  0.06303949  0.15042346  0.51870438  1
  S  S25  1  0.84957654  0.93696051  0.98129562  1
  S  S26  1  0.08897197  0.65553499  0.49529960  1
  S  S27  1  0.34446501  0.91102803  0.00470040  1
  S  S28  1  0.91102803  0.34446501  0.50470040  1
  S  S29  1  0.65553499  0.08897197  0.99529960  1
  S  S30  1  0.74686449  0.51065105  0.49762957  1
  S  S31  1  0.48934895  0.25313551  0.00237043  1
  S  S32  1  0.25313551  0.48934895  0.50237043  1
  S  S33  1  0.51065105  0.74686449  -0.00237043  1
  S  S34  1  0.59585726  0.67702478  0.49855321  1
  S  S35  1  0.32297522  0.40414274  0.00144679  1
  S  S36  1  0.40414274  0.32297522  0.50144679  1
  S  S37  1  0.67702478  0.59585726  -0.00144679  1
  S  S38  1  0.41904447  0.81453551  0.51043547  1
  S  S39  1  0.18546449  0.58095553  0.98956453  1
  S  S40  1  0.58095553  0.18546449  0.48956453  1
  S  S41  1  0.81453551  0.41904447  0.01043547  1
