# generated using pymatgen
data_K2Cu(CO3)2
_symmetry_space_group_name_H-M   'P 1'
_cell_length_a   10.66693914
_cell_length_b   9.47593105
_cell_length_c   6.59620426
_cell_angle_alpha   81.01686218
_cell_angle_beta   61.33623515
_cell_angle_gamma   37.64690266
_symmetry_Int_Tables_number   1
_chemical_formula_structural   K2Cu(CO3)2
_chemical_formula_sum   'K4 Cu2 C4 O12'
_cell_volume   324.73104164
_cell_formula_units_Z   2
loop_
 _symmetry_equiv_pos_site_id
 _symmetry_equiv_pos_as_xyz
  1  'x, y, z'
loop_
 _atom_site_type_symbol
 _atom_site_label
 _atom_site_symmetry_multiplicity
 _atom_site_fract_x
 _atom_site_fract_y
 _atom_site_fract_z
 _atom_site_occupancy
  K  K0  1  0.57580000  0.01960700  0.58285300  1
  K  K1  1  0.80597600  0.59110400  0.02864900  1
  K  K2  1  0.66135300  0.43388300  0.68175700  1
  K  K3  1  0.22024600  0.67682400  0.43206000  1
  Cu  Cu4  1  0.99639900  0.99940700  0.00556300  1
  Cu  Cu5  1  0.24956200  0.25431800  0.24460500  1
  C  C6  1  0.16752100  0.57683200  0.99892500  1
  C  C7  1  0.25638400  0.99716000  0.57739500  1
  C  C8  1  0.25137500  0.99717200  0.09376200  1
  C  C9  1  0.65998100  0.08994600  0.99657200  1
  O  O10  1  0.99300100  0.81728300  0.16385700  1
  O  O11  1  0.01965200  0.17189400  0.81469400  1
  O  O12  1  0.09448000  0.21739800  0.24243200  1
  O  O13  1  0.44836300  0.24187200  0.22133300  1
  O  O14  1  0.10204800  0.49632200  0.09731300  1
  O  O15  1  0.31289000  0.08817500  0.48035900  1
  O  O16  1  0.15691900  0.94815500  0.14099000  1
  O  O17  1  0.75585500  0.14454300  0.94893900  1
  O  O18  1  0.35182000  0.47062200  0.76705300  1
  O  O19  1  0.40227600  0.77242500  0.47337100  1
  O  O20  1  0.47003800  0.85494000  0.90913800  1
  O  O21  1  0.77977700  0.90158800  0.83777600  1
