# generated using pymatgen
data_Co3TeO6
_symmetry_space_group_name_H-M   'P 1'
_cell_length_a   8.43693390
_cell_length_b   8.43693390
_cell_length_c   10.39408175
_cell_angle_alpha   84.39880427
_cell_angle_beta   84.39880427
_cell_angle_gamma   62.20321634
_symmetry_Int_Tables_number   1
_chemical_formula_structural   Co3TeO6
_chemical_formula_sum   'Co18 Te6 O36'
_cell_volume   650.22828868
_cell_formula_units_Z   6
loop_
 _symmetry_equiv_pos_site_id
 _symmetry_equiv_pos_as_xyz
  1  'x, y, z'
loop_
 _atom_site_type_symbol
 _atom_site_label
 _atom_site_symmetry_multiplicity
 _atom_site_fract_x
 _atom_site_fract_y
 _atom_site_fract_z
 _atom_site_occupancy
  Co  Co0  1  0.85158701  0.17784420  0.97811354  1
  Co  Co1  1  0.18745872  0.50949612  0.26139064  1
  Co  Co2  1  0.43624660  0.15295163  0.42401364  1
  Co  Co3  1  0.82215580  0.14841299  0.52188646  1
  Co  Co4  1  0.49050388  0.81254128  0.23860936  1
  Co  Co5  1  0.36146813  0.97166079  0.94798478  1
  Co  Co6  1  0.14841299  0.82215580  0.02188646  1
  Co  Co7  1  0.63853187  0.02833921  0.05201522  1
  Co  Co8  1  0.50949612  0.18745872  0.76139064  1
  Co  Co9  1  0.56375340  0.84704837  0.57598636  1
  Co  Co10  1  0.67352224  0.32647776  0.25000000  1
  Co  Co11  1  0.81254128  0.49050388  0.73860936  1
  Co  Co12  1  0.97166079  0.36146813  0.44798478  1
  Co  Co13  1  0.02833921  0.63853187  0.55201522  1
  Co  Co14  1  0.17784420  0.85158701  0.47811354  1
  Co  Co15  1  0.15295163  0.43624660  0.92401364  1
  Co  Co16  1  0.84704837  0.56375340  0.07598636  1
  Co  Co17  1  0.32647776  0.67352224  0.75000000  1
  Te  Te18  1  0.84333760  0.84596659  0.29570187  1
  Te  Te19  1  0.84596659  0.84333760  0.79570187  1
  Te  Te20  1  0.15666240  0.15403341  0.70429813  1
  Te  Te21  1  0.50000000  0.50000000  0.50000000  1
  Te  Te22  1  0.15403341  0.15666240  0.20429813  1
  Te  Te23  1  0.50000000  0.50000000  0.00000000  1
  O  O24  1  0.42927602  0.42214933  0.16660461  1
  O  O25  1  0.40145830  0.04133550  0.12543725  1
  O  O26  1  0.72901236  0.77553748  0.16659770  1
  O  O27  1  0.61315268  0.90386938  0.39193825  1
  O  O28  1  0.09613062  0.38684732  0.10806175  1
  O  O29  1  0.07422559  0.74431501  0.69893809  1
  O  O30  1  0.04133550  0.40145830  0.62543725  1
  O  O31  1  0.26038932  0.59261716  0.93497339  1
  O  O32  1  0.24839350  0.93385062  0.30810964  1
  O  O33  1  0.74431501  0.07422559  0.19893809  1
  O  O34  1  0.90386938  0.61315268  0.89193825  1
  O  O35  1  0.25693484  0.60062685  0.44009039  1
  O  O36  1  0.77553748  0.72901236  0.66659770  1
  O  O37  1  0.07522245  0.08923917  0.55516240  1
  O  O38  1  0.92477755  0.91076083  0.44483760  1
  O  O39  1  0.60062685  0.25693484  0.94009039  1
  O  O40  1  0.59854170  0.95866450  0.87456275  1
  O  O41  1  0.08923917  0.07522245  0.05516240  1
  O  O42  1  0.73961068  0.40738284  0.06502661  1
  O  O43  1  0.39937315  0.74306516  0.05990961  1
  O  O44  1  0.74306516  0.39937315  0.55990961  1
  O  O45  1  0.22446252  0.27098764  0.33340230  1
  O  O46  1  0.42214933  0.42927602  0.66660461  1
  O  O47  1  0.93385062  0.24839350  0.80810964  1
  O  O48  1  0.25568499  0.92577441  0.80106191  1
  O  O49  1  0.57072398  0.57785067  0.83339539  1
  O  O50  1  0.92577441  0.25568499  0.30106191  1
  O  O51  1  0.75160650  0.06614938  0.69189036  1
  O  O52  1  0.57785067  0.57072398  0.33339539  1
  O  O53  1  0.40738284  0.73961068  0.56502661  1
  O  O54  1  0.59261716  0.26038932  0.43497339  1
  O  O55  1  0.91076083  0.92477755  0.94483760  1
  O  O56  1  0.27098764  0.22446252  0.83340230  1
  O  O57  1  0.06614938  0.75160650  0.19189036  1
  O  O58  1  0.38684732  0.09613062  0.60806175  1
  O  O59  1  0.95866450  0.59854170  0.37456275  1
