# generated using pymatgen
data_La2GeS5
_symmetry_space_group_name_H-M   'P 1'
_cell_length_a   12.78296388
_cell_length_b   7.68873873
_cell_length_c   7.95275448
_cell_angle_alpha   78.67340655
_cell_angle_beta   90.00000000
_cell_angle_gamma   90.00000000
_symmetry_Int_Tables_number   1
_chemical_formula_structural   La2GeS5
_chemical_formula_sum   'La8 Ge4 S20'
_cell_volume   766.41199599
_cell_formula_units_Z   4
loop_
 _symmetry_equiv_pos_site_id
 _symmetry_equiv_pos_as_xyz
  1  'x, y, z'
loop_
 _atom_site_type_symbol
 _atom_site_label
 _atom_site_symmetry_multiplicity
 _atom_site_fract_x
 _atom_site_fract_y
 _atom_site_fract_z
 _atom_site_occupancy
  La  La0  1  0.16676143  0.15972928  0.36534033  1
  La  La1  1  0.09329722  0.76075861  0.04182763  1
  La  La2  1  0.59329722  0.23924139  0.45817237  1
  La  La3  1  0.40670278  0.76075861  0.54182763  1
  La  La4  1  0.83323857  0.84027072  0.63465967  1
  La  La5  1  0.90670278  0.23924139  0.95817237  1
  La  La6  1  0.66676143  0.84027072  0.13465967  1
  La  La7  1  0.33323857  0.15972928  0.86534033  1
  Ge  Ge8  1  0.61669372  0.33760439  0.90857178  1
  Ge  Ge9  1  0.11669372  0.66239561  0.59142822  1
  Ge  Ge10  1  0.38330628  0.66239561  0.09142822  1
  Ge  Ge11  1  0.88330628  0.33760439  0.40857178  1
  S  S12  1  0.70532098  0.12879718  0.80441110  1
  S  S13  1  0.02714522  0.82889235  0.38154862  1
  S  S14  1  0.23212163  0.46466149  0.54782843  1
  S  S15  1  0.52714522  0.17110765  0.11845138  1
  S  S16  1  0.79467902  0.12879718  0.30441110  1
  S  S17  1  0.29467902  0.87120282  0.19558890  1
  S  S18  1  0.20532098  0.87120282  0.69558890  1
  S  S19  1  0.87932665  0.86302946  -0.00105619  1
  S  S20  1  0.97285478  0.17110765  0.61845138  1
  S  S21  1  0.62067335  0.86302946  0.49894381  1
  S  S22  1  0.49338466  0.42014761  0.71754273  1
  S  S23  1  0.76787837  0.53533851  0.45217157  1
  S  S24  1  0.47285478  0.82889235  0.88154862  1
  S  S25  1  0.99338466  0.57985239  0.78245727  1
  S  S26  1  0.37932665  0.13697054  0.50105619  1
  S  S27  1  0.50661534  0.57985239  0.28245727  1
  S  S28  1  0.00661534  0.42014761  0.21754273  1
  S  S29  1  0.12067335  0.13697054  0.00105619  1
  S  S30  1  0.73212163  0.53533851  0.95217157  1
  S  S31  1  0.26787837  0.46466149  0.04782843  1
