# generated using pymatgen
data_Rb2Sn(GeO3)3
_symmetry_space_group_name_H-M   'P 1'
_cell_length_a   12.33523623
_cell_length_b   12.33523623
_cell_length_c   10.88836300
_cell_angle_alpha   90.00000000
_cell_angle_beta   90.00000000
_cell_angle_gamma   120.00000122
_symmetry_Int_Tables_number   1
_chemical_formula_structural   Rb2Sn(GeO3)3
_chemical_formula_sum   'Rb12 Sn6 Ge18 O54'
_cell_volume   1434.78939919
_cell_formula_units_Z   6
loop_
 _symmetry_equiv_pos_site_id
 _symmetry_equiv_pos_as_xyz
  1  'x, y, z'
loop_
 _atom_site_type_symbol
 _atom_site_label
 _atom_site_symmetry_multiplicity
 _atom_site_fract_x
 _atom_site_fract_y
 _atom_site_fract_z
 _atom_site_occupancy
  Rb  Rb0  1  0.64912700  0.64986700  0.01687300  1
  Rb  Rb1  1  0.35087300  0.00074100  0.48312700  1
  Rb  Rb2  1  0.35013300  0.99925900  0.01687300  1
  Rb  Rb3  1  0.64986700  0.00074100  0.98312700  1
  Rb  Rb4  1  0.35087300  0.35013300  0.98312700  1
  Rb  Rb5  1  0.64912700  0.99925900  0.51687300  1
  Rb  Rb6  1  0.00074100  0.64986700  0.51687300  1
  Rb  Rb7  1  0.00074100  0.35087300  0.01687300  1
  Rb  Rb8  1  0.35013300  0.35087300  0.51687300  1
  Rb  Rb9  1  0.99925900  0.35013300  0.48312700  1
  Rb  Rb10  1  0.64986700  0.64912700  0.48312700  1
  Rb  Rb11  1  0.99925900  0.64912700  0.98312700  1
  Sn  Sn12  1  0.33333300  0.66666700  0.99266500  1
  Sn  Sn13  1  0.66666700  0.33333300  0.00733500  1
  Sn  Sn14  1  0.00000000  0.00000000  0.50000000  1
  Sn  Sn15  1  0.66666700  0.33333300  0.50733500  1
  Sn  Sn16  1  0.00000000  0.00000000  0.00000000  1
  Sn  Sn17  1  0.33333300  0.66666700  0.49266500  1
  Ge  Ge18  1  0.54950200  0.71589600  0.73843600  1
  Ge  Ge19  1  0.00000000  0.17746600  0.25000000  1
  Ge  Ge20  1  0.17746600  0.00000000  0.25000000  1
  Ge  Ge21  1  0.54950200  0.83360600  0.23843600  1
  Ge  Ge22  1  0.28410400  0.83360600  0.73843600  1
  Ge  Ge23  1  0.16639400  0.71589600  0.23843600  1
  Ge  Ge24  1  0.28410400  0.45049800  0.23843600  1
  Ge  Ge25  1  0.71589600  0.54950200  0.76156400  1
  Ge  Ge26  1  0.16639400  0.45049800  0.73843600  1
  Ge  Ge27  1  0.45049800  0.16639400  0.76156400  1
  Ge  Ge28  1  0.00000000  0.82253400  0.75000000  1
  Ge  Ge29  1  0.83360600  0.28410400  0.76156400  1
  Ge  Ge30  1  0.71589600  0.16639400  0.26156400  1
  Ge  Ge31  1  0.83360600  0.54950200  0.26156400  1
  Ge  Ge32  1  0.45049800  0.28410400  0.26156400  1
  Ge  Ge33  1  0.82253400  0.00000000  0.75000000  1
  Ge  Ge34  1  0.82253400  0.82253400  0.25000000  1
  Ge  Ge35  1  0.17746600  0.17746600  0.75000000  1
  O  O36  1  0.15539800  0.06525200  0.11577600  1
  O  O37  1  0.81111600  0.45341900  0.38968600  1
  O  O38  1  0.61828600  0.61828600  0.75000000  1
  O  O39  1  0.50617900  0.23211400  0.61594600  1
  O  O40  1  0.61828600  0.00000000  0.25000000  1
  O  O41  1  0.64230300  0.45341900  0.88968600  1
  O  O42  1  0.09014700  0.93474800  0.38422400  1
  O  O43  1  0.27406500  0.76788600  0.88405400  1
  O  O44  1  0.23211400  0.72593500  0.38405400  1
  O  O45  1  0.54658100  0.18888400  0.88968600  1
  O  O46  1  0.67109100  0.79925400  0.19952600  1
  O  O47  1  0.35769700  0.54658100  0.11031400  1
  O  O48  1  0.12816300  0.79925400  0.69952600  1
  O  O49  1  0.20074600  0.87183700  0.19952600  1
  O  O50  1  0.32890900  0.20074600  0.80047400  1
  O  O51  1  0.49382100  0.76788600  0.38405400  1
  O  O52  1  0.06525200  0.15539800  0.38422400  1
  O  O53  1  0.76788600  0.49382100  0.11594600  1
  O  O54  1  0.38171400  0.38171400  0.25000000  1
  O  O55  1  0.87183700  0.20074600  0.30047400  1
  O  O56  1  0.93474800  0.84460200  0.61577600  1
  O  O57  1  0.32890900  0.12816300  0.30047400  1
  O  O58  1  0.15539800  0.09014700  0.61577600  1
  O  O59  1  0.27406500  0.50617900  0.38405400  1
  O  O60  1  0.90985300  0.06525200  0.61577600  1
  O  O61  1  0.64230300  0.18888400  0.38968600  1
  O  O62  1  0.09014700  0.15539800  0.88422400  1
  O  O63  1  0.12816300  0.32890900  0.19952600  1
  O  O64  1  0.84460200  0.93474800  0.88422400  1
  O  O65  1  0.93474800  0.09014700  0.11577600  1
  O  O66  1  0.45341900  0.81111600  0.11031400  1
  O  O67  1  0.81111600  0.35769700  0.88968600  1
  O  O68  1  0.84460200  0.90985300  0.38422400  1
  O  O69  1  0.35769700  0.81111600  0.61031400  1
  O  O70  1  0.45341900  0.64230300  0.61031400  1
  O  O71  1  0.38171400  0.00000000  0.75000000  1
  O  O72  1  0.72593500  0.49382100  0.61594600  1
  O  O73  1  0.87183700  0.67109100  0.80047400  1
  O  O74  1  0.54658100  0.35769700  0.38968600  1
  O  O75  1  0.67109100  0.87183700  0.69952600  1
  O  O76  1  0.00000000  0.38171400  0.75000000  1
  O  O77  1  0.06525200  0.90985300  0.88422400  1
  O  O78  1  0.20074600  0.32890900  0.69952600  1
  O  O79  1  0.18888400  0.64230300  0.11031400  1
  O  O80  1  0.79925400  0.12816300  0.80047400  1
  O  O81  1  0.18888400  0.54658100  0.61031400  1
  O  O82  1  0.23211400  0.50617900  0.88405400  1
  O  O83  1  0.76788600  0.27406500  0.61594600  1
  O  O84  1  0.50617900  0.27406500  0.11594600  1
  O  O85  1  0.79925400  0.67109100  0.30047400  1
  O  O86  1  0.49382100  0.72593500  0.88405400  1
  O  O87  1  0.72593500  0.23211400  0.11594600  1
  O  O88  1  0.00000000  0.61828600  0.25000000  1
  O  O89  1  0.90985300  0.84460200  0.11577600  1
