# generated using pymatgen
data_KSn2F5
_symmetry_space_group_name_H-M   'P 1'
_cell_length_a   7.25041208
_cell_length_b   9.76633399
_cell_length_c   12.46450127
_cell_angle_alpha   90.02866784
_cell_angle_beta   90.41318853
_cell_angle_gamma   90.12650553
_symmetry_Int_Tables_number   1
_chemical_formula_structural   KSn2F5
_chemical_formula_sum   'K6 Sn12 F30'
_cell_volume   882.58544127
_cell_formula_units_Z   6
loop_
 _symmetry_equiv_pos_site_id
 _symmetry_equiv_pos_as_xyz
  1  'x, y, z'
loop_
 _atom_site_type_symbol
 _atom_site_label
 _atom_site_symmetry_multiplicity
 _atom_site_fract_x
 _atom_site_fract_y
 _atom_site_fract_z
 _atom_site_occupancy
  K  K0  1  0.49556657  -0.00196410  0.50093093  1
  K  K1  1  0.49783648  0.03886462  0.16674672  1
  K  K2  1  0.00762377  0.01139505  0.66655803  1
  K  K3  1  0.00008866  0.99834811  0.99811972  1
  K  K4  1  0.00343646  0.97682196  0.33244707  1
  K  K5  1  0.49504924  0.97901035  0.83440663  1
  Sn  Sn6  1  0.65389038  0.67417472  0.34082890  1
  Sn  Sn7  1  0.67358402  0.67580602  0.00193782  1
  Sn  Sn8  1  0.33919594  0.32956354  0.33967005  1
  Sn  Sn9  1  0.15679157  0.67425694  0.16043240  1
  Sn  Sn10  1  0.16929671  0.66992550  0.82540115  1
  Sn  Sn11  1  0.17375972  0.66919101  0.50251645  1
  Sn  Sn12  1  0.83562161  0.32319850  0.47996888  1
  Sn  Sn13  1  0.84804277  0.32964262  0.16764294  1
  Sn  Sn14  1  0.83591003  0.32809068  0.84965625  1
  Sn  Sn15  1  0.68061467  0.67007361  0.66503539  1
  Sn  Sn16  1  0.34177033  0.33102835  0.99301725  1
  Sn  Sn17  1  0.33172683  0.32797275  0.66798713  1
  F  F18  1  0.98096773  0.28012186  0.99281006  1
  F  F19  1  0.66966605  0.88104887  0.02455315  1
  F  F20  1  0.63574086  0.87947338  0.32273473  1
  F  F21  1  0.62144231  0.28615687  0.05121710  1
  F  F22  1  0.62360725  0.28643066  0.28681555  1
  F  F23  1  0.49653639  0.28094722  0.49957510  1
  F  F24  1  0.31803257  0.12236219  0.34412651  1
  F  F25  1  0.28307816  0.28303003  0.16666739  1
  F  F26  1  0.22341655  0.72135753  0.33419922  1
  F  F27  1  0.19819559  0.87981237  0.15297441  1
  F  F28  1  0.17361899  0.87614878  0.51247838  1
  F  F29  1  0.14065300  0.87635300  0.83162904  1
  F  F30  1  0.10162808  0.27749245  0.55728818  1
  F  F31  1  0.10338444  0.27888439  0.77897659  1
  F  F32  1  -0.00052993  0.71380722  0.66729350  1
  F  F33  1  0.98838515  0.27743582  0.34020674  1
  F  F34  1  0.89503120  0.71996906  0.22153479  1
  F  F35  1  0.87613794  0.71148641  0.44683066  1
  F  F36  1  0.86057525  0.12294517  0.16880008  1
  F  F37  1  0.81884615  0.11745440  0.49429728  1
  F  F38  1  0.81094301  0.12275127  0.83204190  1
  F  F39  1  0.73387392  0.71887001  0.84028351  1
  F  F40  1  0.68543426  0.87683622  0.65726591  1
  F  F41  1  0.49861577  0.28623372  0.83657724  1
  F  F42  1  0.50794466  0.71383226  0.49217751  1
  F  F43  1  0.38738979  0.72070760  0.71471914  1
  F  F44  1  0.39348538  0.72440793  0.94086071  1
  F  F45  1  0.35634960  0.12103755  0.67048213  1
  F  F46  1  0.32323387  0.12364472  0.98610398  1
  F  F47  1  0.98600926  0.71345777  0.01000881  1
