# generated using pymatgen
data_K3ClO
_symmetry_space_group_name_H-M   'P 1'
_cell_length_a   5.24302534
_cell_length_b   10.08188548
_cell_length_c   7.13810156
_cell_angle_alpha   45.07325321
_cell_angle_beta   90.00000000
_cell_angle_gamma   90.00000000
_symmetry_Int_Tables_number   1
_chemical_formula_structural   K3ClO
_chemical_formula_sum   'K6 Cl2 O2'
_cell_volume   267.14434313
_cell_formula_units_Z   2
loop_
 _symmetry_equiv_pos_site_id
 _symmetry_equiv_pos_as_xyz
  1  'x, y, z'
loop_
 _atom_site_type_symbol
 _atom_site_label
 _atom_site_symmetry_multiplicity
 _atom_site_fract_x
 _atom_site_fract_y
 _atom_site_fract_z
 _atom_site_occupancy
  K  K0  1  -0.00000000  0.18590527  0.50000000  1
  K  K1  1  -0.00000000  0.68082255  0.12308926  1
  K  K2  1  -0.00000000  0.30391081  0.87691074  1
  K  K3  1  0.50000000  0.49095700  0.99983801  1
  K  K4  1  0.50000000  0.99079400  0.00016199  1
  K  K5  1  0.00000000  0.80651248  0.50000000  1
  Cl  Cl6  1  0.50000000  0.48786075  0.50000000  1
  Cl  Cl7  1  0.50000000  0.99634237  0.50000000  1
  O  O8  1  0.00000000  0.99089378  0.00280820  1
  O  O9  1  -0.00000000  0.49370098  0.99719180  1
