# generated using pymatgen
data_Fe(HO)2
_symmetry_space_group_name_H-M   'P 1'
_cell_length_a   3.24334334
_cell_length_b   3.24334334
_cell_length_c   4.48560412
_cell_angle_alpha   90.05212966
_cell_angle_beta   90.05212966
_cell_angle_gamma   60.03022269
_symmetry_Int_Tables_number   1
_chemical_formula_structural   Fe(HO)2
_chemical_formula_sum   'Fe1 H2 O2'
_cell_volume   40.87609191
_cell_formula_units_Z   1
loop_
 _symmetry_equiv_pos_site_id
 _symmetry_equiv_pos_as_xyz
  1  'x, y, z'
loop_
 _atom_site_type_symbol
 _atom_site_label
 _atom_site_symmetry_multiplicity
 _atom_site_fract_x
 _atom_site_fract_y
 _atom_site_fract_z
 _atom_site_occupancy
  Fe  Fe0  1  0.92861176  0.07138824  -0.00000000  1
  H  H1  1  0.59467631  0.73810639  0.55685685  1
  H  H2  1  0.26189361  0.40532369  0.44314315  1
  O  O3  1  0.59456554  0.73856221  0.77231656  1
  O  O4  1  0.26143779  0.40543446  0.22768344  1
