# generated using pymatgen
data_Na4V2O7
_symmetry_space_group_name_H-M   'P 1'
_cell_length_a   5.84112822
_cell_length_b   8.32643050
_cell_length_c   32.97887191
_cell_angle_alpha   94.71246635
_cell_angle_beta   90.05102544
_cell_angle_gamma   110.58446903
_symmetry_Int_Tables_number   1
_chemical_formula_structural   Na4V2O7
_chemical_formula_sum   'Na32 V16 O56'
_cell_volume   1495.70938367
_cell_formula_units_Z   8
loop_
 _symmetry_equiv_pos_site_id
 _symmetry_equiv_pos_as_xyz
  1  'x, y, z'
loop_
 _atom_site_type_symbol
 _atom_site_label
 _atom_site_symmetry_multiplicity
 _atom_site_fract_x
 _atom_site_fract_y
 _atom_site_fract_z
 _atom_site_occupancy
  Na  Na0  1  0.81104532  0.99622320  0.25072793  1
  Na  Na1  1  0.91304921  0.47746347  0.10398096  1
  Na  Na2  1  0.09122365  0.52732789  0.89597438  1
  Na  Na3  1  0.67853525  0.71720849  0.97721616  1
  Na  Na4  1  0.80939552  0.01463882  0.35000628  1
  Na  Na5  1  0.32084435  0.28489771  0.02269451  1
  Na  Na6  1  0.03623906  0.61580082  0.68885096  1
  Na  Na7  1  0.12103434  0.79404743  0.37214760  1
  Na  Na8  1  0.41864923  0.38623060  0.81147764  1
  Na  Na9  1  0.56418413  0.47923369  0.60515239  1
  Na  Na10  1  0.96221561  0.28511517  0.52256461  1
  Na  Na11  1  0.03775668  0.71921513  0.47772979  1
  Na  Na12  1  0.29737283  0.13618389  0.43944109  1
  Na  Na13  1  0.15668847  0.86077025  0.05994457  1
  Na  Na14  1  0.32788575  0.20700651  0.12834833  1
  Na  Na15  1  0.87714035  0.20355720  0.62758387  1
  Na  Na16  1  0.59449016  0.76055746  0.76909919  1
  Na  Na17  1  0.84319646  0.13983091  0.93942167  1
  Na  Na18  1  0.80009008  0.98712965  0.15072978  1
  Na  Na19  1  0.49823923  0.49917857  0.49973491  1
  Na  Na20  1  0.99861534  0.49914888  0.00035736  1
  Na  Na21  1  0.41188316  0.24617388  0.23170969  1
  Na  Na22  1  0.58075355  0.61528915  0.18906947  1
  Na  Na23  1  0.18448731  0.98536306  0.64946513  1
  Na  Na24  1  0.82824699  0.24189349  0.73101643  1
  Na  Na25  1  0.19705858  0.01430646  0.85016610  1
  Na  Na26  1  0.43586890  0.52784093  0.39594912  1
  Na  Na27  1  0.96788700  0.38102281  0.31092689  1
  Na  Na28  1  0.16315363  0.75155958  0.26868419  1
  Na  Na29  1  0.69112599  0.85863713  0.56037314  1
  Na  Na30  1  0.67407160  0.79180289  0.87216422  1
  Na  Na31  1  0.19130633  0.00371147  0.74942520  1
  V  V32  1  0.65355656  0.89833268  0.44617685  1
  V  V33  1  0.39080771  0.18688406  0.32348179  1
  V  V34  1  0.44328778  0.39134888  0.69589463  1
  V  V35  1  0.79388343  0.18397501  0.82314751  1
  V  V36  1  0.89674965  0.34183103  0.42952416  1
  V  V37  1  0.20536171  0.81454531  0.17675656  1
  V  V38  1  0.24750300  0.89954541  0.94596289  1
  V  V39  1  0.60983476  0.81396911  0.67678184  1
  V  V40  1  0.95211287  0.39452940  0.19601152  1
  V  V41  1  0.55805309  0.60782917  0.30469600  1
  V  V42  1  0.09860853  0.65817457  0.57041275  1
  V  V43  1  0.55687098  0.65876397  0.07061410  1
  V  V44  1  0.34784627  0.10143405  0.55369984  1
  V  V45  1  0.44290998  0.34343528  0.92987580  1
  V  V46  1  0.75537125  0.10213654  0.05407702  1
  V  V47  1  0.04855563  0.60766450  0.80466303  1
  O  O48  1  0.33353496  0.58101880  0.56270139  1
  O  O49  1  0.68954649  0.86829839  0.04935222  1
  O  O50  1  0.77926611  0.81657474  0.40639700  1
  O  O51  1  0.07050967  0.23159310  0.19041803  1
  O  O52  1  0.43002702  0.91151398  0.70214846  1
  O  O53  1  0.83851942  0.77263762  0.30983278  1
  O  O54  1  0.92726948  0.76908108  0.81082887  1
  O  O55  1  0.53393925  0.43845112  0.74566594  1
  O  O56  1  0.33387611  0.66446790  0.32986964  1
  O  O57  1  0.42847936  0.57954457  0.67064311  1
  O  O58  1  0.66933252  0.33636203  0.17138763  1
  O  O59  1  0.01473428  0.15903744  0.79181410  1
  O  O60  1  0.23093955  0.18452003  0.59440351  1
  O  O61  1  0.19753760  0.90249907  0.13184333  1
  O  O62  1  0.66395697  0.42060340  0.43764893  1
  O  O63  1  0.31527671  0.13376304  0.95123751  1
  O  O64  1  0.46570811  0.55753563  0.25505253  1
  O  O65  1  0.95884365  0.18679082  0.09433997  1
  O  O66  1  0.88789711  0.18928637  0.01067133  1
  O  O67  1  0.75492731  0.42302863  0.93799324  1
  O  O68  1  0.24550951  0.58270289  0.06190384  1
  O  O69  1  0.91290004  0.44581176  0.24577190  1
  O  O70  1  0.16234034  0.22764207  0.69031725  1
  O  O71  1  0.64158697  0.66996150  0.12057970  1
  O  O72  1  0.18055769  0.86683973  0.54838202  1
  O  O73  1  0.08724485  0.55936146  0.75479933  1
  O  O74  1  0.29895148  0.09739151  0.36835416  1
  O  O75  1  0.14269872  0.16336965  0.29275703  1
  O  O76  1  0.35283180  0.32980001  0.88009057  1
  O  O77  1  0.33116634  0.66623521  0.82943052  1
  O  O78  1  0.48508284  0.91170180  0.20155651  1
  O  O79  1  0.80108570  0.09399828  0.86774953  1
  O  O80  1  0.66750636  0.33508723  0.67061045  1
  O  O81  1  0.51377630  0.08807763  0.79830924  1
  O  O82  1  0.15298700  0.58053565  0.16993049  1
  O  O83  1  0.97002667  0.32624822  0.37959409  1
  O  O84  1  0.11510984  0.81068840  0.98913691  1
  O  O85  1  0.84261457  0.52853405  0.54252108  1
  O  O86  1  0.57199364  0.09090678  0.29798991  1
  O  O87  1  0.81552528  0.13271450  0.45120443  1
  O  O88  1  0.69647391  0.81089862  0.48959414  1
  O  O89  1  0.86003855  0.83876958  0.70709557  1
  O  O90  1  0.65223121  0.13844622  0.56360710  1
  O  O91  1  0.34856064  0.85505263  0.43516155  1
  O  O92  1  0.31312919  0.47031980  0.95790588  1
  O  O93  1  0.98199502  0.83709950  0.20790776  1
  O  O94  1  0.15334168  0.46897408  0.45760096  1
  O  O95  1  0.02305220  0.67276833  0.62021782  1
  O  O96  1  0.85031328  0.41861379  0.83013791  1
  O  O97  1  0.30399481  0.19194975  0.51075244  1
  O  O98  1  0.68577505  0.53103905  0.04263634  1
  O  O99  1  0.57269846  0.42108342  0.33039645  1
  O  O100  1  0.04278367  0.81583517  0.90588841  1
  O  O101  1  0.69926437  0.90169730  0.63167710  1
  O  O102  1  0.48957145  0.14093558  0.06411638  1
  O  O103  1  0.51254465  0.86032857  0.93538085  1
