# generated using pymatgen
data_Lu4Zr3O12
_symmetry_space_group_name_H-M   'P 1'
_cell_length_a   6.26657173
_cell_length_b   6.30520310
_cell_length_c   12.56552776
_cell_angle_alpha   99.33765002
_cell_angle_beta   99.37933612
_cell_angle_gamma   99.42188809
_symmetry_Int_Tables_number   1
_chemical_formula_structural   Lu4Zr3O12
_chemical_formula_sum   'Lu8 Zr6 O24'
_cell_volume   474.05205430
_cell_formula_units_Z   2
loop_
 _symmetry_equiv_pos_site_id
 _symmetry_equiv_pos_as_xyz
  1  'x, y, z'
loop_
 _atom_site_type_symbol
 _atom_site_label
 _atom_site_symmetry_multiplicity
 _atom_site_fract_x
 _atom_site_fract_y
 _atom_site_fract_z
 _atom_site_occupancy
  Lu  Lu0  1  0.39146825  0.86316288  0.09630532  1
  Lu  Lu1  1  0.31238140  0.60779307  0.81848905  1
  Lu  Lu2  1  0.30187848  0.60982815  0.31895245  1
  Lu  Lu3  1  0.85943315  0.68871528  0.44661321  1
  Lu  Lu4  1  0.68761860  0.39220693  0.18151095  1
  Lu  Lu5  1  0.14056685  0.31128472  0.55338679  1
  Lu  Lu6  1  0.60853175  0.13683712  0.90369468  1
  Lu  Lu7  1  0.69812152  0.39017185  0.68104755  1
  Zr  Zr8  1  0.99333071  0.99439456  0.24861718  1
  Zr  Zr9  1  0.39139524  0.85641347  0.59404766  1
  Zr  Zr10  1  0.00666929  0.00560544  0.75138282  1
  Zr  Zr11  1  0.85566889  0.68047275  0.94560283  1
  Zr  Zr12  1  0.14433111  0.31952725  0.05439717  1
  Zr  Zr13  1  0.60860476  0.14358653  0.40595234  1
  O  O14  1  0.32193765  0.94103002  0.78714320  1
  O  O15  1  0.04404683  0.90226164  0.08851604  1
  O  O16  1  0.31877114  0.95544239  0.29599076  1
  O  O17  1  0.07036919  0.91774854  0.59162048  1
  O  O18  1  0.58536606  0.82012045  0.96252313  1
  O  O19  1  0.91987415  0.68819420  0.78786106  1
  O  O20  1  0.17523247  0.57457049  0.96407605  1
  O  O21  1  0.57115674  0.82787962  0.46253365  1
  O  O22  1  0.92186204  0.67956961  0.27891804  1
  O  O23  1  0.41216608  0.57055453  0.15883833  1
  O  O24  1  0.18356010  0.58743880  0.46700233  1
  O  O25  1  0.58783392  0.42944547  0.84116167  1
  O  O26  1  0.42727996  0.58095173  0.65883162  1
  O  O27  1  0.82476753  0.42542951  0.03592395  1
  O  O28  1  0.57272004  0.41904827  0.34116838  1
  O  O29  1  0.08012585  0.31180580  0.21213894  1
  O  O30  1  0.41463394  0.17987955  0.03747687  1
  O  O31  1  0.81643990  0.41256120  0.53299767  1
  O  O32  1  0.07813796  0.32043039  0.72108196  1
  O  O33  1  0.42884326  0.17212038  0.53746635  1
  O  O34  1  0.95595317  0.09773836  0.91148396  1
  O  O35  1  0.67806235  0.05896998  0.21285680  1
  O  O36  1  0.92963081  0.08225146  0.40837952  1
  O  O37  1  0.68122886  0.04455761  0.70400924  1
