# generated using pymatgen
data_K5(AsPb)3
_symmetry_space_group_name_H-M   'P 1'
_cell_length_a   6.60768526
_cell_length_b   12.25539267
_cell_length_c   19.57650566
_cell_angle_alpha   90.00000000
_cell_angle_beta   90.00000000
_cell_angle_gamma   90.00000000
_symmetry_Int_Tables_number   1
_chemical_formula_structural   K5(AsPb)3
_chemical_formula_sum   'K20 As12 Pb12'
_cell_volume   1585.30107260
_cell_formula_units_Z   4
loop_
 _symmetry_equiv_pos_site_id
 _symmetry_equiv_pos_as_xyz
  1  'x, y, z'
loop_
 _atom_site_type_symbol
 _atom_site_label
 _atom_site_symmetry_multiplicity
 _atom_site_fract_x
 _atom_site_fract_y
 _atom_site_fract_z
 _atom_site_occupancy
  K  K0  1  0.77119585  0.54497148  0.32101537  1
  K  K1  1  0.26047215  0.75000000  0.87759199  1
  K  K2  1  0.45275296  0.75000000  0.60119551  1
  K  K3  1  0.76047215  0.25000000  0.62240801  1
  K  K4  1  0.23952785  0.75000000  0.37759199  1
  K  K5  1  0.54724704  0.25000000  0.39880449  1
  K  K6  1  0.27119585  0.45502852  0.17898463  1
  K  K7  1  0.04724704  0.75000000  0.10119551  1
  K  K8  1  0.77119585  0.95502852  0.32101537  1
  K  K9  1  0.72880415  0.95502852  0.82101537  1
  K  K10  1  0.27119585  0.04497148  0.17898463  1
  K  K11  1  0.72880415  0.54497148  0.82101537  1
  K  K12  1  -0.00000000  0.00000000  -0.00000000  1
  K  K13  1  0.22880415  0.45502852  0.67898463  1
  K  K14  1  0.22880415  0.04497148  0.67898463  1
  K  K15  1  0.50000000  0.00000000  0.50000000  1
  K  K16  1  0.95275296  0.25000000  0.89880449  1
  K  K17  1  0.73952785  0.25000000  0.12240801  1
  K  K18  1  0.50000000  0.50000000  0.50000000  1
  K  K19  1  -0.00000000  0.50000000  -0.00000000  1
  As  As20  1  0.74115550  0.75000000  0.45571011  1
  As  As21  1  0.75884450  0.75000000  0.95571011  1
  As  As22  1  0.23478767  0.44561763  0.84777576  1
  As  As23  1  0.76521233  0.94561763  0.15222424  1
  As  As24  1  0.26521233  0.05438237  0.34777576  1
  As  As25  1  0.73478767  0.55438237  0.65222424  1
  As  As26  1  0.73478767  0.94561763  0.65222424  1
  As  As27  1  0.23478767  0.05438237  0.84777576  1
  As  As28  1  0.25884450  0.25000000  0.54428989  1
  As  As29  1  0.26521233  0.44561763  0.34777576  1
  As  As30  1  0.76521233  0.55438237  0.15222424  1
  As  As31  1  0.24115550  0.25000000  0.04428989  1
  Pb  Pb32  1  0.97871170  0.88188303  0.54383539  1
  Pb  Pb33  1  0.02128830  0.11811697  0.45616461  1
  Pb  Pb34  1  0.93908758  0.75000000  0.69314206  1
  Pb  Pb35  1  0.56091242  0.75000000  0.19314206  1
  Pb  Pb36  1  0.97871170  0.61811697  0.54383539  1
  Pb  Pb37  1  0.06091242  0.25000000  0.30685794  1
  Pb  Pb38  1  0.02128830  0.38188303  0.45616461  1
  Pb  Pb39  1  0.52128830  0.88188303  0.04383539  1
  Pb  Pb40  1  0.47871170  0.38188303  0.95616461  1
  Pb  Pb41  1  0.47871170  0.11811697  0.95616461  1
  Pb  Pb42  1  0.52128830  0.61811697  0.04383539  1
  Pb  Pb43  1  0.43908758  0.25000000  0.80685794  1
