# generated using pymatgen
data_Lu(HO)3
_symmetry_space_group_name_H-M   'P 1'
_cell_length_a   6.99243446
_cell_length_b   6.99243505
_cell_length_c   6.99243432
_cell_angle_alpha   109.32211680
_cell_angle_beta   109.32210611
_cell_angle_gamma   109.32211955
_symmetry_Int_Tables_number   1
_chemical_formula_structural   Lu(HO)3
_chemical_formula_sum   'Lu4 H12 O12'
_cell_volume   264.62929692
_cell_formula_units_Z   4
loop_
 _symmetry_equiv_pos_site_id
 _symmetry_equiv_pos_as_xyz
  1  'x, y, z'
loop_
 _atom_site_type_symbol
 _atom_site_label
 _atom_site_symmetry_multiplicity
 _atom_site_fract_x
 _atom_site_fract_y
 _atom_site_fract_z
 _atom_site_occupancy
  Lu  Lu0  1  0.00000000  0.50000000  0.00000000  1
  Lu  Lu1  1  0.50000000  0.50000000  0.50000000  1
  Lu  Lu2  1  0.50000000  0.00000000  0.00000000  1
  Lu  Lu3  1  0.00000000  0.00000000  0.50000000  1
  H  H4  1  0.54715962  0.37745798  0.82727125  1
  H  H5  1  0.45284038  0.62254202  0.17272875  1
  H  H6  1  0.68552990  0.72614236  0.04308008  1
  H  H7  1  0.31447010  0.27385764  0.95691992  1
  H  H8  1  0.95691992  0.31447010  0.27385764  1
  H  H9  1  0.04308008  0.68552990  0.72614236  1
  H  H10  1  0.17272875  0.45284038  0.62254202  1
  H  H11  1  0.82727125  0.54715962  0.37745798  1
  H  H12  1  0.62254202  0.17272875  0.45284038  1
  H  H13  1  0.37745798  0.82727125  0.54715962  1
  H  H14  1  0.27385764  0.95691992  0.31447010  1
  H  H15  1  0.72614236  0.04308008  0.68552990  1
  O  O16  1  0.67024730  0.50099385  0.82982931  1
  O  O17  1  0.32975270  0.49900615  0.17017069  1
  O  O18  1  0.68255754  0.84798426  0.16328191  1
  O  O19  1  0.31744246  0.15201574  0.83671809  1
  O  O20  1  0.83671809  0.31744246  0.15201574  1
  O  O21  1  0.16328191  0.68255754  0.84798426  1
  O  O22  1  0.17017069  0.32975270  0.49900615  1
  O  O23  1  0.82982931  0.67024730  0.50099385  1
  O  O24  1  0.49900615  0.17017069  0.32975270  1
  O  O25  1  0.50099385  0.82982931  0.67024730  1
  O  O26  1  0.15201574  0.83671809  0.31744246  1
  O  O27  1  0.84798426  0.16328191  0.68255754  1
