# generated using pymatgen
data_CsAs2Se3
_symmetry_space_group_name_H-M   'P 1'
_cell_length_a   7.55417968
_cell_length_b   13.61046091
_cell_length_c   15.04786126
_cell_angle_alpha   90.00000000
_cell_angle_beta   90.00000000
_cell_angle_gamma   90.00000000
_symmetry_Int_Tables_number   1
_chemical_formula_structural   CsAs2Se3
_chemical_formula_sum   'Cs8 As16 Se24'
_cell_volume   1547.15890558
_cell_formula_units_Z   8
loop_
 _symmetry_equiv_pos_site_id
 _symmetry_equiv_pos_as_xyz
  1  'x, y, z'
loop_
 _atom_site_type_symbol
 _atom_site_label
 _atom_site_symmetry_multiplicity
 _atom_site_fract_x
 _atom_site_fract_y
 _atom_site_fract_z
 _atom_site_occupancy
  Cs  Cs0  1  0.25000000  0.91531539  0.09240754  1
  Cs  Cs1  1  0.25000000  0.58468461  0.59240754  1
  Cs  Cs2  1  0.75000000  0.08468461  0.90759246  1
  Cs  Cs3  1  0.25000000  0.59441961  0.92171217  1
  Cs  Cs4  1  0.25000000  0.90558039  0.42171217  1
  Cs  Cs5  1  0.75000000  0.09441961  0.57828783  1
  Cs  Cs6  1  0.75000000  0.40558039  0.07828783  1
  Cs  Cs7  1  0.75000000  0.41531539  0.40759246  1
  As  As8  1  0.41829346  0.22983320  0.74301539  1
  As  As9  1  0.75000000  0.72519743  0.48385319  1
  As  As10  1  0.25000000  0.56490838  0.21298325  1
  As  As11  1  0.75000000  0.77480257  0.98385319  1
  As  As12  1  0.91829346  0.72983320  0.75698461  1
  As  As13  1  0.58170654  0.77016680  0.25698461  1
  As  As14  1  0.41829346  0.27016680  0.24301539  1
  As  As15  1  0.25000000  0.27480257  0.51614681  1
  As  As16  1  0.58170654  0.72983320  0.75698461  1
  As  As17  1  0.08170654  0.27016680  0.24301539  1
  As  As18  1  0.25000000  0.93509162  0.71298325  1
  As  As19  1  0.25000000  0.22519743  0.01614681  1
  As  As20  1  0.75000000  0.43509162  0.78701675  1
  As  As21  1  0.91829346  0.77016680  0.25698461  1
  As  As22  1  0.75000000  0.06490838  0.28701675  1
  As  As23  1  0.08170654  0.22983320  0.74301539  1
  Se  Se24  1  0.25000000  0.43299224  0.11170416  1
  Se  Se25  1  0.99306155  0.64417899  0.14494789  1
  Se  Se26  1  0.01354921  0.16670877  0.11418724  1
  Se  Se27  1  0.48645079  0.33329123  0.61418724  1
  Se  Se28  1  0.51354921  0.83329123  0.88581276  1
  Se  Se29  1  0.49306155  0.35582101  0.85505211  1
  Se  Se30  1  0.51354921  0.66670877  0.38581276  1
  Se  Se31  1  0.50693845  0.85582101  0.64494789  1
  Se  Se32  1  0.25000000  0.10080495  0.90843842  1
  Se  Se33  1  0.00693845  0.14417899  0.35505211  1
  Se  Se34  1  0.75000000  0.93299224  0.38829584  1
  Se  Se35  1  0.01354921  0.33329123  0.61418724  1
  Se  Se36  1  0.25000000  0.06700776  0.61170416  1
  Se  Se37  1  0.00693845  0.35582101  0.85505211  1
  Se  Se38  1  0.99306155  0.85582101  0.64494789  1
  Se  Se39  1  0.75000000  0.60080495  0.59156158  1
  Se  Se40  1  0.25000000  0.39919505  0.40843842  1
  Se  Se41  1  0.75000000  0.89919505  0.09156158  1
  Se  Se42  1  0.48645079  0.16670877  0.11418724  1
  Se  Se43  1  0.98645079  0.66670877  0.38581276  1
  Se  Se44  1  0.50693845  0.64417899  0.14494789  1
  Se  Se45  1  0.75000000  0.56700776  0.88829584  1
  Se  Se46  1  0.49306155  0.14417899  0.35505211  1
  Se  Se47  1  0.98645079  0.83329123  0.88581276  1
