# generated using pymatgen
data_CsZn2P2HO8
_symmetry_space_group_name_H-M   'P 1'
_cell_length_a   8.60965634
_cell_length_b   8.60965634
_cell_length_c   7.80189737
_cell_angle_alpha   90.00000000
_cell_angle_beta   90.00000000
_cell_angle_gamma   135.27091042
_symmetry_Int_Tables_number   1
_chemical_formula_structural   CsZn2P2HO8
_chemical_formula_sum   'Cs2 Zn4 P4 H2 O16'
_cell_volume   406.99930064
_cell_formula_units_Z   2
loop_
 _symmetry_equiv_pos_site_id
 _symmetry_equiv_pos_as_xyz
  1  'x, y, z'
loop_
 _atom_site_type_symbol
 _atom_site_label
 _atom_site_symmetry_multiplicity
 _atom_site_fract_x
 _atom_site_fract_y
 _atom_site_fract_z
 _atom_site_occupancy
  Cs  Cs0  1  0.50000000  0.50000000  0.50000000  1
  Cs  Cs1  1  0.00000000  -0.00000000  -0.00000000  1
  Zn  Zn2  1  0.48189173  0.01810827  0.75000000  1
  Zn  Zn3  1  0.01810827  0.48189173  0.25000000  1
  Zn  Zn4  1  0.51810827  0.98189173  0.25000000  1
  Zn  Zn5  1  0.98189173  0.51810827  0.75000000  1
  P  P6  1  0.14223761  0.85776239  0.45761947  1
  P  P7  1  0.85776239  0.14223761  0.54238053  1
  P  P8  1  0.35776239  0.64223761  0.95761947  1
  P  P9  1  0.64223761  0.35776239  0.04238053  1
  H  H10  1  0.00000000  -0.00000000  0.50000000  1
  H  H11  1  0.50000000  0.50000000  -0.00000000  1
  O  O12  1  0.20252378  0.79747622  0.29795018  1
  O  O13  1  0.79747622  0.20252378  0.70204982  1
  O  O14  1  0.29747622  0.70252378  0.79795018  1
  O  O15  1  0.70252378  0.29747622  0.20204982  1
  O  O16  1  0.96344395  0.64728273  0.55967712  1
  O  O17  1  0.64728273  0.96344395  0.44032288  1
  O  O18  1  0.14728273  0.46344395  0.05967712  1
  O  O19  1  0.46344395  0.14728273  0.94032288  1
  O  O20  1  0.03655605  0.35271727  0.44032288  1
  O  O21  1  0.35271727  0.03655605  0.55967712  1
  O  O22  1  0.85271727  0.53655605  0.94032288  1
  O  O23  1  0.53655605  0.85271727  0.05967712  1
  O  O24  1  0.05197629  0.94802371  0.38845052  1
  O  O25  1  0.94802371  0.05197629  0.61154948  1
  O  O26  1  0.44802371  0.55197629  0.88845052  1
  O  O27  1  0.55197629  0.44802371  0.11154948  1
