# generated using pymatgen
data_K3Ta2S11
_symmetry_space_group_name_H-M   'P 1'
_cell_length_a   7.89774079
_cell_length_b   12.28604607
_cell_length_c   18.30422161
_cell_angle_alpha   100.33341319
_cell_angle_beta   102.45561469
_cell_angle_gamma   90.02053622
_symmetry_Int_Tables_number   1
_chemical_formula_structural   K3Ta2S11
_chemical_formula_sum   'K12 Ta8 S44'
_cell_volume   1704.75286262
_cell_formula_units_Z   4
loop_
 _symmetry_equiv_pos_site_id
 _symmetry_equiv_pos_as_xyz
  1  'x, y, z'
loop_
 _atom_site_type_symbol
 _atom_site_label
 _atom_site_symmetry_multiplicity
 _atom_site_fract_x
 _atom_site_fract_y
 _atom_site_fract_z
 _atom_site_occupancy
  K  K0  1  0.29953134  0.90311291  0.93478619  1
  K  K1  1  0.10935396  0.17004146  0.76215954  1
  K  K2  1  0.05539435  0.25679219  0.41809726  1
  K  K3  1  0.36238634  0.59494577  0.06534024  1
  K  K4  1  0.70609954  0.09554781  0.06533167  1
  K  K5  1  0.34675039  0.32858102  0.23826235  1
  K  K6  1  0.64015662  0.40329703  0.93473410  1
  K  K7  1  0.89314360  0.82874114  0.23782878  1
  K  K8  1  0.63718075  0.24220399  0.58216054  1
  K  K9  1  0.94663377  0.74263325  0.58199062  1
  K  K10  1  0.65538605  0.67010122  0.76215702  1
  K  K11  1  0.36401691  0.75675396  0.41801993  1
  Ta  Ta12  1  0.38443886  0.92739656  0.16507791  1
  Ta  Ta13  1  0.10440505  0.41934295  0.64422100  1
  Ta  Ta14  1  0.46062703  0.07960939  0.35585179  1
  Ta  Ta15  1  0.61950360  0.07170053  0.83496124  1
  Ta  Ta16  1  0.54153891  0.91923478  0.64434183  1
  Ta  Ta17  1  0.78351549  0.42719551  0.16517930  1
  Ta  Ta18  1  0.21823097  0.57147102  0.83498875  1
  Ta  Ta19  1  0.89677974  0.58004153  0.35574045  1
  S  S20  1  0.47057110  0.64432514  0.90816622  1
  S  S21  1  0.82370117  0.50190811  0.63251685  1
  S  S22  1  0.17769192  0.49770105  0.36778068  1
  S  S23  1  0.05430262  0.24158312  0.59332503  1
  S  S24  1  0.02866921  0.56762761  0.92364714  1
  S  S25  1  0.97316030  0.43076763  0.07656197  1
  S  S26  1  0.54003870  0.74146057  0.59348641  1
  S  S27  1  0.57432793  0.09438778  0.24007811  1
  S  S28  1  0.10685846  0.93191744  0.07614835  1
  S  S29  1  0.06860025  0.72772137  0.79156060  1
  S  S30  1  0.19139506  0.99715036  0.36737786  1
  S  S31  1  0.21817656  0.64515596  0.72017084  1
  S  S32  1  0.40569537  0.99705907  0.53195756  1
  S  S33  1  0.82125607  0.94800668  0.73482403  1
  S  S34  1  0.53172225  0.35371444  0.09197613  1
  S  S35  1  0.46164746  0.25737798  0.40682357  1
  S  S36  1  0.24808994  0.94564259  0.67068165  1
  S  S37  1  0.84914484  0.57760547  0.10176969  1
  S  S38  1  0.66815211  0.59442116  0.23961238  1
  S  S39  1  0.56314904  0.85389133  0.09195086  1
  S  S40  1  0.15216734  0.42068094  0.89806164  1
  S  S41  1  0.59537427  0.00162142  0.46819798  1
  S  S42  1  0.78368456  0.35420021  0.28023598  1
  S  S43  1  0.89789013  0.06831077  0.92346543  1
  S  S44  1  0.33323172  0.40444374  0.76016041  1
  S  S45  1  0.08581334  0.55126108  0.26524747  1
  S  S46  1  0.18146008  0.05110098  0.26502655  1
  S  S47  1  0.93375194  0.27151621  0.20910900  1
  S  S48  1  0.49798589  0.85374418  0.27999934  1
  S  S49  1  0.42413414  0.44590893  0.67024149  1
  S  S50  1  0.91583366  0.44801168  0.73490719  1
  S  S51  1  0.74880686  0.92131596  0.89825165  1
  S  S52  1  0.44070899  0.14486928  0.90814695  1
  S  S53  1  0.75451900  0.05296133  0.33021403  1
  S  S54  1  0.94626976  0.75791753  0.40640853  1
  S  S55  1  0.27678735  0.77150826  0.20847947  1
  S  S56  1  0.42936883  0.90453510  0.76054312  1
  S  S57  1  0.12717889  0.49733804  0.53188185  1
  S  S58  1  0.50421179  0.14496372  0.72008341  1
  S  S59  1  0.57703523  0.55344629  0.32962091  1
  S  S60  1  0.87387413  0.50238393  0.46817289  1
  S  S61  1  0.72559877  0.22762523  0.79115989  1
  S  S62  1  0.25720413  0.07842422  0.10188019  1
  S  S63  1  0.81055957  0.00174206  0.63235916  1
