# generated using pymatgen
data_Cs3H5Pt
_symmetry_space_group_name_H-M   'P 1'
_cell_length_a   8.16377489
_cell_length_b   8.16377489
_cell_length_c   6.24675578
_cell_angle_alpha   90.00000000
_cell_angle_beta   90.00000000
_cell_angle_gamma   90.00000000
_symmetry_Int_Tables_number   1
_chemical_formula_structural   Cs3H5Pt
_chemical_formula_sum   'Cs6 H10 Pt2'
_cell_volume   416.32890960
_cell_formula_units_Z   2
loop_
 _symmetry_equiv_pos_site_id
 _symmetry_equiv_pos_as_xyz
  1  'x, y, z'
loop_
 _atom_site_type_symbol
 _atom_site_label
 _atom_site_symmetry_multiplicity
 _atom_site_fract_x
 _atom_site_fract_y
 _atom_site_fract_z
 _atom_site_occupancy
  Cs  Cs0  1  0.50000000  0.50000000  0.00000000  1
  Cs  Cs1  1  0.00000000  0.00000000  0.00000000  1
  Cs  Cs2  1  0.18450868  0.68450868  0.50000000  1
  Cs  Cs3  1  0.81549132  0.31549132  0.50000000  1
  Cs  Cs4  1  0.68450868  0.81549132  0.50000000  1
  Cs  Cs5  1  0.31549132  0.18450868  0.50000000  1
  H  H6  1  0.50000000  0.50000000  0.50000000  1
  H  H7  1  0.00000000  0.00000000  0.50000000  1
  H  H8  1  0.60208128  0.10208128  0.81498392  1
  H  H9  1  0.39791872  0.89791872  0.81498392  1
  H  H10  1  0.10208128  0.39791872  0.81498392  1
  H  H11  1  0.89791872  0.60208128  0.81498392  1
  H  H12  1  0.39791872  0.89791872  0.18501608  1
  H  H13  1  0.60208128  0.10208128  0.18501608  1
  H  H14  1  0.89791872  0.60208128  0.18501608  1
  H  H15  1  0.10208128  0.39791872  0.18501608  1
  Pt  Pt16  1  0.50000000  0.00000000  0.00000000  1
  Pt  Pt17  1  0.00000000  0.50000000  0.00000000  1
