# generated using pymatgen
data_K2Ti(GeO3)3
_symmetry_space_group_name_H-M   'P 1'
_cell_length_a   12.04218259
_cell_length_b   12.04218259
_cell_length_c   10.61238200
_cell_angle_alpha   89.96272229
_cell_angle_beta   89.96272229
_cell_angle_gamma   60.00591935
_symmetry_Int_Tables_number   1
_chemical_formula_structural   K2Ti(GeO3)3
_chemical_formula_sum   'K12 Ti6 Ge18 O54'
_cell_volume   1332.84516388
_cell_formula_units_Z   6
loop_
 _symmetry_equiv_pos_site_id
 _symmetry_equiv_pos_as_xyz
  1  'x, y, z'
loop_
 _atom_site_type_symbol
 _atom_site_label
 _atom_site_symmetry_multiplicity
 _atom_site_fract_x
 _atom_site_fract_y
 _atom_site_fract_z
 _atom_site_occupancy
  K  K0  1  0.00448800  0.64708900  0.75906400  1
  K  K1  1  0.64771500  0.34692500  0.75859900  1
  K  K2  1  0.35291100  0.99551200  0.24093600  1
  K  K3  1  0.64724600  0.00468600  0.25887100  1
  K  K4  1  0.65184500  0.99497300  0.74075100  1
  K  K5  1  0.34777600  0.00504300  0.75911500  1
  K  K6  1  0.99531400  0.35275400  0.74112900  1
  K  K7  1  0.65307600  0.35228500  0.24140100  1
  K  K8  1  0.34776800  0.64684300  0.25903000  1
  K  K9  1  0.00502700  0.34815500  0.25924900  1
  K  K10  1  0.35315700  0.65223200  0.74097000  1
  K  K11  1  0.99495700  0.65222400  0.24088500  1
  Ti  Ti12  1  0.66672800  0.66654100  0.75917600  1
  Ti  Ti13  1  0.99996600  0.00000200  0.24999800  1
  Ti  Ti14  1  0.33309900  0.33347400  0.74080700  1
  Ti  Ti15  1  0.33345900  0.33327200  0.24082400  1
  Ti  Ti16  1  0.99999800  0.00003400  0.75000200  1
  Ti  Ti17  1  0.66652600  0.66690100  0.25919300  1
  Ge  Ge18  1  0.99999000  0.17705700  0.50026000  1
  Ge  Ge19  1  0.54653600  0.28341300  0.48569200  1
  Ge  Ge20  1  0.16977400  0.54665900  0.48625300  1
  Ge  Ge21  1  0.17005400  0.28342200  0.98573400  1
  Ge  Ge22  1  0.83017300  0.45341300  0.01405500  1
  Ge  Ge23  1  0.82976200  0.71666100  0.51400100  1
  Ge  Ge24  1  0.45334100  0.83022600  0.51374700  1
  Ge  Ge25  1  0.28333700  0.54666000  0.98556200  1
  Ge  Ge26  1  0.99983900  0.82302300  0.99962800  1
  Ge  Ge27  1  0.54658700  0.16982700  0.98594500  1
  Ge  Ge28  1  0.82299800  0.17700200  0.00000000  1
  Ge  Ge29  1  0.17697700  0.00016100  0.00037200  1
  Ge  Ge30  1  0.82294300  0.00001000  0.49974000  1
  Ge  Ge31  1  0.28333900  0.17023800  0.48599900  1
  Ge  Ge32  1  0.71658700  0.45346400  0.51430800  1
  Ge  Ge33  1  0.71657800  0.82994600  0.01426600  1
  Ge  Ge34  1  0.17687400  0.82312600  0.50000000  1
  Ge  Ge35  1  0.45334000  0.71666300  0.01443800  1
  O  O36  1  0.06715100  0.84796100  0.13648000  1
  O  O37  1  0.23512100  0.48865300  0.63382100  1
  O  O38  1  0.19295700  0.35671100  0.85423500  1
  O  O39  1  0.35673800  0.19316500  0.35417500  1
  O  O40  1  0.54948800  0.64322400  0.14631500  1
  O  O41  1  0.15200500  0.91512400  0.36355600  1
  O  O42  1  0.45043400  0.35689600  0.35348300  1
  O  O43  1  0.35677600  0.45051200  0.85368500  1
  O  O44  1  0.08487600  0.84799500  0.63644400  1
  O  O45  1  0.87542200  0.79356600  0.05766100  1
  O  O46  1  0.45037200  0.19292700  0.85370800  1
  O  O47  1  0.72432400  0.76430500  0.86553700  1
  O  O48  1  0.33093400  0.87542600  0.05791900  1
  O  O49  1  0.48839700  0.23530000  0.13385100  1
  O  O50  1  0.99996000  0.61900000  0.49970400  1
  O  O51  1  0.38100000  0.00004000  0.50029600  1
  O  O52  1  0.80707300  0.54962800  0.14629200  1
  O  O53  1  0.20632600  0.66900400  0.44234300  1
  O  O54  1  0.79357700  0.87540200  0.55777500  1
  O  O55  1  0.93273800  0.91515700  0.86373100  1
  O  O56  1  0.93262400  0.15223500  0.36348200  1
  O  O57  1  0.66892300  0.20638300  0.94231600  1
  O  O58  1  0.99988600  0.38098300  0.00037000  1
  O  O59  1  0.84776500  0.06737600  0.63651800  1
  O  O60  1  0.27582500  0.48828200  0.13376000  1
  O  O61  1  0.54949200  0.80698600  0.64631900  1
  O  O62  1  0.33099600  0.79367400  0.55765700  1
  O  O63  1  0.15203900  0.93284900  0.86352000  1
  O  O64  1  0.12459800  0.20642300  0.44222500  1
  O  O65  1  0.08484300  0.06726200  0.13626900  1
  O  O66  1  0.80683500  0.64326200  0.64582500  1
  O  O67  1  0.61901700  0.00011400  0.99963000  1
  O  O68  1  0.12457400  0.66906600  0.94208100  1
  O  O69  1  0.27546900  0.23571400  0.63417100  1
  O  O70  1  0.76470000  0.51160300  0.86614900  1
  O  O71  1  0.72399900  0.51183500  0.36641300  1
  O  O72  1  0.64310400  0.54956600  0.64651700  1
  O  O73  1  0.64328900  0.80704300  0.14576500  1
  O  O74  1  0.51134700  0.76487900  0.36617900  1
  O  O75  1  0.79361700  0.33107700  0.05768400  1
  O  O76  1  0.61937800  0.38062200  0.50000000  1
  O  O77  1  0.51171800  0.72417500  0.86624000  1
  O  O78  1  0.20643400  0.12457800  0.94233900  1
  O  O79  1  0.23569500  0.27567600  0.13446300  1
  O  O80  1  0.66898100  0.12456800  0.44203500  1
  O  O81  1  0.06703600  0.08499200  0.63620000  1
  O  O82  1  0.87543200  0.33101900  0.55796500  1
  O  O83  1  0.91485200  0.15222600  0.86359100  1
  O  O84  1  0.19301400  0.45050800  0.35368100  1
  O  O85  1  0.91500800  0.93296400  0.36380000  1
  O  O86  1  0.48816500  0.27600100  0.63358700  1
  O  O87  1  0.84777400  0.08514800  0.13640900  1
  O  O88  1  0.38055500  0.61944500  0.00000000  1
  O  O89  1  0.76428600  0.72453100  0.36582900  1
