# generated using pymatgen
data_PbO
_symmetry_space_group_name_H-M   'P 1'
_cell_length_a   5.25637583
_cell_length_b   5.65284203
_cell_length_c   45.18858540
_cell_angle_alpha   90.00000000
_cell_angle_beta   90.00000000
_cell_angle_gamma   90.00000000
_symmetry_Int_Tables_number   1
_chemical_formula_structural   PbO
_chemical_formula_sum   'Pb32 O32'
_cell_volume   1342.70932494
_cell_formula_units_Z   32
loop_
 _symmetry_equiv_pos_site_id
 _symmetry_equiv_pos_as_xyz
  1  'x, y, z'
loop_
 _atom_site_type_symbol
 _atom_site_label
 _atom_site_symmetry_multiplicity
 _atom_site_fract_x
 _atom_site_fract_y
 _atom_site_fract_z
 _atom_site_occupancy
  Pb  Pb0  1  0.22617881  0.76599438  0.12501973  1
  Pb  Pb1  1  0.22614431  0.22961691  0.93750437  1
  Pb  Pb2  1  0.77382119  0.23400562  0.87498027  1
  Pb  Pb3  1  0.77387115  0.74389277  0.18748160  1
  Pb  Pb4  1  0.77372960  0.23055821  0.25000000  1
  Pb  Pb5  1  0.77385569  0.72961691  0.56249563  1
  Pb  Pb6  1  0.77385569  0.77038309  0.06249563  1
  Pb  Pb7  1  0.22612885  0.25610723  0.81251840  1
  Pb  Pb8  1  0.77372960  0.26944179  0.75000000  1
  Pb  Pb9  1  0.22627040  0.73055821  0.25000000  1
  Pb  Pb10  1  0.22627040  0.76944179  0.75000000  1
  Pb  Pb11  1  0.77387115  0.75610723  0.81251840  1
  Pb  Pb12  1  0.22614431  0.27038309  0.43750437  1
  Pb  Pb13  1  0.77382119  0.26599438  0.37498027  1
  Pb  Pb14  1  0.22617881  0.73400562  0.87498027  1
  Pb  Pb15  1  0.22617881  0.76599438  0.37498027  1
  Pb  Pb16  1  0.77400392  0.25000000  0.50000000  1
  Pb  Pb17  1  0.22617881  0.73400562  0.62501973  1
  Pb  Pb18  1  0.22599608  0.75000000  -0.00000000  1
  Pb  Pb19  1  0.22599608  0.75000000  0.50000000  1
  Pb  Pb20  1  0.22612885  0.25610723  0.68748160  1
  Pb  Pb21  1  0.77400392  0.25000000  -0.00000000  1
  Pb  Pb22  1  0.77385569  0.72961691  0.93750437  1
  Pb  Pb23  1  0.77385569  0.77038309  0.43750437  1
  Pb  Pb24  1  0.77387115  0.74389277  0.31251840  1
  Pb  Pb25  1  0.77382119  0.23400562  0.62501973  1
  Pb  Pb26  1  0.77382119  0.26599438  0.12501973  1
  Pb  Pb27  1  0.22614431  0.22961691  0.56249563  1
  Pb  Pb28  1  0.22612885  0.24389277  0.18748160  1
  Pb  Pb29  1  0.22614431  0.27038309  0.06249563  1
  Pb  Pb30  1  0.77387115  0.75610723  0.68748160  1
  Pb  Pb31  1  0.22612885  0.24389277  0.31251840  1
  O  O32  1  0.99771347  0.97634552  0.90623029  1
  O  O33  1  0.99322240  0.48251920  0.28127571  1
  O  O34  1  0.99322240  0.01748080  0.71872429  1
  O  O35  1  0.00677760  0.98251920  0.21872429  1
  O  O36  1  0.00677760  0.51748080  0.78127571  1
  O  O37  1  0.00228653  0.47634552  0.59376971  1
  O  O38  1  0.99322240  0.48251920  0.21872429  1
  O  O39  1  0.98906245  0.00670205  0.15627011  1
  O  O40  1  0.98987037  0.98646043  0.53122175  1
  O  O41  1  0.99322240  0.01748080  0.78127571  1
  O  O42  1  0.01012963  0.01353957  0.46877825  1
  O  O43  1  0.01012963  0.48646043  0.53122175  1
  O  O44  1  0.98906245  0.49329795  0.65627011  1
  O  O45  1  0.98987037  0.51353957  0.46877825  1
  O  O46  1  0.01012963  0.01353957  0.03122175  1
  O  O47  1  0.01093755  0.99329795  0.65627011  1
  O  O48  1  0.01012963  0.48646043  0.96877825  1
  O  O49  1  0.98906245  0.00670205  0.34372989  1
  O  O50  1  0.00228653  0.47634552  0.90623029  1
  O  O51  1  0.00677760  0.98251920  0.28127571  1
  O  O52  1  0.98987037  0.98646043  0.96877825  1
  O  O53  1  0.98906245  0.49329795  0.84372989  1
  O  O54  1  0.99771347  0.52365448  0.40623029  1
  O  O55  1  0.99771347  0.97634552  0.59376971  1
  O  O56  1  0.98987037  0.51353957  0.03122175  1
  O  O57  1  0.01093755  0.99329795  0.84372989  1
  O  O58  1  0.01093755  0.50670205  0.15627011  1
  O  O59  1  0.99771347  0.52365448  0.09376971  1
  O  O60  1  0.00228653  0.02365448  0.40623029  1
  O  O61  1  0.00228653  0.02365448  0.09376971  1
  O  O62  1  0.00677760  0.51748080  0.71872429  1
  O  O63  1  0.01093755  0.50670205  0.34372989  1
