# generated using pymatgen
data_Ga3Cl7
_symmetry_space_group_name_H-M   'P 1'
_cell_length_a   8.91746069
_cell_length_b   10.54702083
_cell_length_c   12.00211626
_cell_angle_alpha   90.00000000
_cell_angle_beta   90.00000000
_cell_angle_gamma   90.00000000
_symmetry_Int_Tables_number   1
_chemical_formula_structural   Ga3Cl7
_chemical_formula_sum   'Ga12 Cl28'
_cell_volume   1128.83076363
_cell_formula_units_Z   4
loop_
 _symmetry_equiv_pos_site_id
 _symmetry_equiv_pos_as_xyz
  1  'x, y, z'
loop_
 _atom_site_type_symbol
 _atom_site_label
 _atom_site_symmetry_multiplicity
 _atom_site_fract_x
 _atom_site_fract_y
 _atom_site_fract_z
 _atom_site_occupancy
  Ga  Ga0  1  0.86102810  0.15805641  0.40774507  1
  Ga  Ga1  1  0.06971670  0.99563359  0.67733132  1
  Ga  Ga2  1  0.43028330  0.99563359  0.17733132  1
  Ga  Ga3  1  0.61897092  0.75947549  0.61773579  1
  Ga  Ga4  1  0.93028330  0.49563359  0.32266868  1
  Ga  Ga5  1  0.38102908  0.25947549  0.38226421  1
  Ga  Ga6  1  0.88102908  0.75947549  0.11773579  1
  Ga  Ga7  1  0.56971670  0.49563359  0.82266868  1
  Ga  Ga8  1  0.36102810  0.65805641  0.09225493  1
  Ga  Ga9  1  0.13897190  0.65805641  0.59225493  1
  Ga  Ga10  1  0.63897190  0.15805641  0.90774507  1
  Ga  Ga11  1  0.11897092  0.25947549  0.88226421  1
  Cl  Cl12  1  0.96146062  0.33893595  0.21038754  1
  Cl  Cl13  1  0.12540223  0.61536771  0.34863937  1
  Cl  Cl14  1  0.19963356  0.30833362  0.49312868  1
  Cl  Cl15  1  0.74300612  0.62595717  0.74166227  1
  Cl  Cl16  1  0.02747096  0.41030017  0.78472611  1
  Cl  Cl17  1  0.82514003  0.42875851  0.47518875  1
  Cl  Cl18  1  0.67485997  0.42875851  0.97518875  1
  Cl  Cl19  1  0.04708400  0.63828138  0.03715680  1
  Cl  Cl20  1  0.80036644  0.80833362  0.50687132  1
  Cl  Cl21  1  0.47252904  0.41030017  0.28472611  1
  Cl  Cl22  1  0.75699388  0.62595717  0.24166227  1
  Cl  Cl23  1  0.54708400  0.13828138  0.46284320  1
  Cl  Cl24  1  0.52747096  0.91030017  0.71527389  1
  Cl  Cl25  1  0.03853938  0.83893595  0.78961246  1
  Cl  Cl26  1  0.37459777  0.61536771  0.84863937  1
  Cl  Cl27  1  0.69963356  0.80833362  0.00687132  1
  Cl  Cl28  1  0.25699388  0.12595717  0.25833773  1
  Cl  Cl29  1  0.97252904  0.91030017  0.21527389  1
  Cl  Cl30  1  0.32514003  0.92875851  0.02481125  1
  Cl  Cl31  1  0.95291600  0.13828138  0.96284320  1
  Cl  Cl32  1  0.87459777  0.11536771  0.65136063  1
  Cl  Cl33  1  0.62540223  0.11536771  0.15136063  1
  Cl  Cl34  1  0.24300612  0.12595717  0.75833773  1
  Cl  Cl35  1  0.46146062  0.83893595  0.28961246  1
  Cl  Cl36  1  0.17485997  0.92875851  0.52481125  1
  Cl  Cl37  1  0.45291600  0.63828138  0.53715680  1
  Cl  Cl38  1  0.30036644  0.30833362  0.99312868  1
  Cl  Cl39  1  0.53853938  0.33893595  0.71038754  1
