# generated using pymatgen
data_Fe(PO3)2
_symmetry_space_group_name_H-M   'P 1'
_cell_length_a   7.28055186
_cell_length_b   7.28055186
_cell_length_c   9.98563436
_cell_angle_alpha   66.40496202
_cell_angle_beta   66.40496202
_cell_angle_gamma   69.34458541
_symmetry_Int_Tables_number   1
_chemical_formula_structural   Fe(PO3)2
_chemical_formula_sum   'Fe4 P8 O24'
_cell_volume   432.66076893
_cell_formula_units_Z   4
loop_
 _symmetry_equiv_pos_site_id
 _symmetry_equiv_pos_as_xyz
  1  'x, y, z'
loop_
 _atom_site_type_symbol
 _atom_site_label
 _atom_site_symmetry_multiplicity
 _atom_site_fract_x
 _atom_site_fract_y
 _atom_site_fract_z
 _atom_site_occupancy
  Fe  Fe0  1  0.94796314  0.05203686  0.75000000  1
  Fe  Fe1  1  0.05203686  0.94796314  0.25000000  1
  Fe  Fe2  1  -0.00000000  0.50000000  0.50000000  1
  Fe  Fe3  1  0.50000000  0.00000000  -0.00000000  1
  P  P4  1  0.69977560  0.68897651  0.80190959  1
  P  P5  1  0.74777037  0.27193970  0.02264860  1
  P  P6  1  0.72806030  0.25222963  0.47735140  1
  P  P7  1  0.25222963  0.72806030  0.97735140  1
  P  P8  1  0.30022440  0.31102349  0.19809041  1
  P  P9  1  0.27193970  0.74777037  0.52264860  1
  P  P10  1  0.68897651  0.69977560  0.30190959  1
  P  P11  1  0.31102349  0.30022440  0.69809041  1
  O  O12  1  0.19450937  0.35193204  0.34690346  1
  O  O13  1  0.87772889  0.71851717  0.31688781  1
  O  O14  1  0.08248264  0.84167707  0.91096222  1
  O  O15  1  0.64806796  0.80549063  0.15309654  1
  O  O16  1  0.71452397  0.19241503  0.91814009  1
  O  O17  1  0.53737996  0.30299281  0.15715492  1
  O  O18  1  0.35193204  0.19450937  0.84690346  1
  O  O19  1  0.28148283  0.12227111  0.18311219  1
  O  O20  1  0.77310484  0.50243235  0.93633336  1
  O  O21  1  0.30299281  0.53737996  0.65715492  1
  O  O22  1  0.50243235  0.77310484  0.43633336  1
  O  O23  1  0.12227111  0.28148283  0.68311219  1
  O  O24  1  0.84167707  0.08248264  0.41096222  1
  O  O25  1  0.15832293  0.91751736  0.58903778  1
  O  O26  1  0.69700719  0.46262004  0.34284508  1
  O  O27  1  0.80758497  0.28547603  0.58185991  1
  O  O28  1  0.71851717  0.87772889  0.81688781  1
  O  O29  1  0.22689516  0.49756765  0.06366664  1
  O  O30  1  0.91751736  0.15832293  0.08903778  1
  O  O31  1  0.28547603  0.80758497  0.08185991  1
  O  O32  1  0.46262004  0.69700719  0.84284508  1
  O  O33  1  0.19241503  0.71452397  0.41814009  1
  O  O34  1  0.49756765  0.22689516  0.56366664  1
  O  O35  1  0.80549063  0.64806796  0.65309654  1
