# generated using pymatgen
data_CoPO4
_symmetry_space_group_name_H-M   'P 1'
_cell_length_a   5.13564748
_cell_length_b   6.58296564
_cell_length_c   10.32375794
_cell_angle_alpha   90.00000000
_cell_angle_beta   90.00000000
_cell_angle_gamma   90.00000000
_symmetry_Int_Tables_number   1
_chemical_formula_structural   CoPO4
_chemical_formula_sum   'Co4 P4 O16'
_cell_volume   349.02344974
_cell_formula_units_Z   4
loop_
 _symmetry_equiv_pos_site_id
 _symmetry_equiv_pos_as_xyz
  1  'x, y, z'
loop_
 _atom_site_type_symbol
 _atom_site_label
 _atom_site_symmetry_multiplicity
 _atom_site_fract_x
 _atom_site_fract_y
 _atom_site_fract_z
 _atom_site_occupancy
  Co  Co0  1  0.17405221  0.78702107  0.34432208  1
  Co  Co1  1  0.32594779  0.78702107  0.84432208  1
  Co  Co2  1  0.82594779  0.28702107  0.65567792  1
  Co  Co3  1  0.67405221  0.28702107  0.15567792  1
  P  P4  1  0.67925459  0.03717665  0.40600835  1
  P  P5  1  0.82074541  0.03717665  0.90600835  1
  P  P6  1  0.17925459  0.53717665  0.09399165  1
  P  P7  1  0.32074541  0.53717665  0.59399165  1
  O  O8  1  0.25006971  0.57256307  0.95195750  1
  O  O9  1  0.61437981  0.49699115  0.60459905  1
  O  O10  1  0.24469191  0.72840604  0.17274457  1
  O  O11  1  0.82535521  0.84931102  0.35615834  1
  O  O12  1  0.88562019  0.49699115  0.10459905  1
  O  O13  1  0.75530809  0.22840604  0.82725543  1
  O  O14  1  0.24993029  0.57256307  0.45195750  1
  O  O15  1  0.17464479  0.34931102  0.64384166  1
  O  O16  1  0.11437981  0.99699115  0.89540095  1
  O  O17  1  0.32535521  0.34931102  0.14384166  1
  O  O18  1  0.25530809  0.72840604  0.67274457  1
  O  O19  1  0.74993029  0.07256307  0.04804250  1
  O  O20  1  0.74469191  0.22840604  0.32725543  1
  O  O21  1  0.38562019  0.99699115  0.39540095  1
  O  O22  1  0.67464479  0.84931102  0.85615834  1
  O  O23  1  0.75006971  0.07256307  0.54804250  1
