# generated using pymatgen
data_MnGeO3
_symmetry_space_group_name_H-M   'P 1'
_cell_length_a   5.47413077
_cell_length_b   9.21015288
_cell_length_c   19.25117844
_cell_angle_alpha   90.00000000
_cell_angle_beta   90.00000000
_cell_angle_gamma   90.00000000
_symmetry_Int_Tables_number   1
_chemical_formula_structural   MnGeO3
_chemical_formula_sum   'Mn16 Ge16 O48'
_cell_volume   970.59785367
_cell_formula_units_Z   16
loop_
 _symmetry_equiv_pos_site_id
 _symmetry_equiv_pos_as_xyz
  1  'x, y, z'
loop_
 _atom_site_type_symbol
 _atom_site_label
 _atom_site_symmetry_multiplicity
 _atom_site_fract_x
 _atom_site_fract_y
 _atom_site_fract_z
 _atom_site_occupancy
  Mn  Mn0  1  0.85137255  0.01710505  0.37747947  1
  Mn  Mn1  1  0.85960929  0.15372477  0.12353707  1
  Mn  Mn2  1  0.64038971  0.65372477  0.87646293  1
  Mn  Mn3  1  0.35961029  0.34627523  0.12353707  1
  Mn  Mn4  1  0.14038971  0.34627523  0.62353707  1
  Mn  Mn5  1  0.35137255  0.48289495  0.37747947  1
  Mn  Mn6  1  0.85960929  0.65372477  0.37646293  1
  Mn  Mn7  1  0.64862745  0.51710505  0.62252053  1
  Mn  Mn8  1  0.14862745  0.98289495  0.62252053  1
  Mn  Mn9  1  0.64038971  0.15372477  0.62353707  1
  Mn  Mn10  1  0.14862745  0.48289495  0.87747947  1
  Mn  Mn11  1  0.14038971  0.84627523  0.87646293  1
  Mn  Mn12  1  0.85137255  0.51710505  0.12252053  1
  Mn  Mn13  1  0.64862745  0.01710505  0.87747947  1
  Mn  Mn14  1  0.35961029  0.84627523  0.37646293  1
  Mn  Mn15  1  0.35137255  0.98289495  0.12252053  1
  Ge  Ge16  1  0.30105013  0.16256050  0.47268805  1
  Ge  Ge17  1  0.30105013  0.66256050  0.02731195  1
  Ge  Ge18  1  0.80105013  0.33743950  0.47268805  1
  Ge  Ge19  1  0.46324067  0.84330376  0.72933196  1
  Ge  Ge20  1  0.69894987  0.33743950  0.97268805  1
  Ge  Ge21  1  0.53675933  0.15669624  0.27066804  1
  Ge  Ge22  1  0.46324067  0.34330376  0.77066804  1
  Ge  Ge23  1  0.96324067  0.65669624  0.72933196  1
  Ge  Ge24  1  0.69894987  0.83743950  0.52731195  1
  Ge  Ge25  1  0.03675933  0.34330376  0.27066804  1
  Ge  Ge26  1  0.80105013  0.83743950  0.02731195  1
  Ge  Ge27  1  0.96324067  0.15669624  0.77066804  1
  Ge  Ge28  1  0.03675933  0.84330376  0.22933196  1
  Ge  Ge29  1  0.19894987  0.16256050  0.97268805  1
  Ge  Ge30  1  0.53675933  0.65669624  0.22933196  1
  Ge  Ge31  1  0.19894987  0.66256050  0.52731195  1
  O  O32  1  0.69476601  0.33981785  0.06353648  1
  O  O33  1  0.17726039  0.01455028  0.43082851  1
  O  O34  1  0.61459043  0.68518887  0.05495268  1
  O  O35  1  0.69476601  0.83981785  0.43646352  1
  O  O36  1  0.45419543  0.51126611  0.81057554  1
  O  O37  1  0.95419543  0.98873389  0.81057554  1
  O  O38  1  0.88540957  0.18518887  0.94504732  1
  O  O39  1  0.04580457  0.01126611  0.18942446  1
  O  O40  1  0.54580457  0.48873389  0.18942446  1
  O  O41  1  0.19476601  0.66018215  0.43646352  1
  O  O42  1  0.47532614  0.84001502  0.81971484  1
  O  O43  1  0.97532614  0.65998498  0.81971484  1
  O  O44  1  0.82073573  0.72124203  0.19358944  1
  O  O45  1  0.45419543  0.01126611  0.68942446  1
  O  O46  1  0.02467386  0.34001502  0.18028516  1
  O  O47  1  0.04580457  0.51126611  0.31057554  1
  O  O48  1  0.38540957  0.81481113  0.55495268  1
  O  O49  1  0.54580457  0.98873389  0.31057554  1
  O  O50  1  0.67726039  0.48544972  0.43082851  1
  O  O51  1  0.17726039  0.51455028  0.06917149  1
  O  O52  1  0.67926427  0.22124203  0.80641056  1
  O  O53  1  0.30523399  0.16018215  0.56353648  1
  O  O54  1  0.11459043  0.31481113  0.44504732  1
  O  O55  1  0.32273961  0.51455028  0.56917149  1
  O  O56  1  0.67726039  0.98544972  0.06917149  1
  O  O57  1  0.47532614  0.34001502  0.68028516  1
  O  O58  1  0.17926427  0.77875797  0.69358944  1
  O  O59  1  0.02467386  0.84001502  0.31971484  1
  O  O60  1  0.67926427  0.72124203  0.69358944  1
  O  O61  1  0.19476601  0.16018215  0.06353648  1
  O  O62  1  0.82273961  0.98544972  0.56917149  1
  O  O63  1  0.32073573  0.27875797  0.30641056  1
  O  O64  1  0.80523399  0.83981785  0.93646352  1
  O  O65  1  0.38540957  0.31481113  0.94504732  1
  O  O66  1  0.61459043  0.18518887  0.44504732  1
  O  O67  1  0.97532614  0.15998498  0.68028516  1
  O  O68  1  0.82273961  0.48544972  0.93082851  1
  O  O69  1  0.32273961  0.01455028  0.93082851  1
  O  O70  1  0.32073573  0.77875797  0.19358944  1
  O  O71  1  0.80523399  0.33981785  0.56353648  1
  O  O72  1  0.30523399  0.66018215  0.93646352  1
  O  O73  1  0.82073573  0.22124203  0.30641056  1
  O  O74  1  0.11459043  0.81481113  0.05495268  1
  O  O75  1  0.95419543  0.48873389  0.68942446  1
  O  O76  1  0.52467386  0.15998498  0.18028516  1
  O  O77  1  0.88540957  0.68518887  0.55495268  1
  O  O78  1  0.17926427  0.27875797  0.80641056  1
  O  O79  1  0.52467386  0.65998498  0.31971484  1
