# generated using pymatgen
data_H5BrO2
_symmetry_space_group_name_H-M   'P 1'
_cell_length_a   4.13798406
_cell_length_b   6.93428583
_cell_length_c   12.37430246
_cell_angle_alpha   90.13352035
_cell_angle_beta   90.01523298
_cell_angle_gamma   101.10166903
_symmetry_Int_Tables_number   1
_chemical_formula_structural   H5BrO2
_chemical_formula_sum   'H20 Br4 O8'
_cell_volume   348.42238945
_cell_formula_units_Z   4
loop_
 _symmetry_equiv_pos_site_id
 _symmetry_equiv_pos_as_xyz
  1  'x, y, z'
loop_
 _atom_site_type_symbol
 _atom_site_label
 _atom_site_symmetry_multiplicity
 _atom_site_fract_x
 _atom_site_fract_y
 _atom_site_fract_z
 _atom_site_occupancy
  H  H0  1  0.70320194  0.57881351  0.68650032  1
  H  H1  1  0.43651625  0.66523432  0.59411182  1
  H  H2  1  0.39100761  0.42217501  0.64329957  1
  H  H3  1  0.26726207  0.91834874  0.18455583  1
  H  H4  1  0.58164201  0.07891741  0.14567258  1
  H  H5  1  0.55253973  0.84257887  0.09683750  1
  H  H6  1  0.27963851  0.42055618  0.31257334  1
  H  H7  1  0.58967811  0.57738368  0.35706990  1
  H  H8  1  0.54305065  0.33337988  0.40604731  1
  H  H9  1  0.38794300  0.92864725  0.85750373  1
  H  H10  1  0.69782514  0.08315729  0.81188497  1
  H  H11  1  0.23679101  0.90132737  0.60249925  1
  H  H12  1  0.22131833  0.80452455  0.48482433  1
  H  H13  1  0.75866176  0.60257791  0.10327221  1
  H  H14  1  0.77489179  0.70036872  0.98630372  1
  H  H15  1  0.74025684  0.09648043  0.39898340  1
  H  H16  1  0.75606508  0.19555655  0.51598953  1
  H  H17  1  0.24633361  0.40920265  0.89900058  1
  H  H18  1  0.22400474  0.30886005  0.01534222  1
  H  H19  1  0.44156984  0.17419359  0.90661339  1
  Br  Br20  1  0.02796249  0.65893639  0.82774555  1
  Br  Br21  1  0.95599836  0.84236433  0.33032727  1
  Br  Br22  1  0.95677514  0.34048242  0.17031410  1
  Br  Br23  1  0.02424728  0.15768983  0.67082942  1
  O  O24  1  0.55892411  0.53964055  0.62279280  1
  O  O25  1  0.41855343  0.96033776  0.12303292  1
  O  O26  1  0.42198349  0.45919516  0.37667614  1
  O  O27  1  0.55731378  0.04642777  0.87657101  1
  O  O28  1  0.32357721  0.80716671  0.55677351  1
  O  O29  1  0.72571802  0.71868559  0.06282774  1
  O  O30  1  0.65304453  0.19133451  0.44415109  1
  O  O31  1  0.34164611  0.32001801  0.94574196  1
