# generated using pymatgen
data_Al2S3
_symmetry_space_group_name_H-M   'P 1'
_cell_length_a   7.04420748
_cell_length_b   21.14339505
_cell_length_c   18.64932409
_cell_angle_alpha   19.09615027
_cell_angle_beta   55.48507517
_cell_angle_gamma   60.01324865
_symmetry_Int_Tables_number   1
_chemical_formula_structural   Al2S3
_chemical_formula_sum   'Al16 S24'
_cell_volume   742.18008236
_cell_formula_units_Z   8
loop_
 _symmetry_equiv_pos_site_id
 _symmetry_equiv_pos_as_xyz
  1  'x, y, z'
loop_
 _atom_site_type_symbol
 _atom_site_label
 _atom_site_symmetry_multiplicity
 _atom_site_fract_x
 _atom_site_fract_y
 _atom_site_fract_z
 _atom_site_occupancy
  Al  Al0  1  0.98928757  0.99660518  0.01082968  1
  Al  Al1  1  0.01095509  0.33716488  0.98917114  1
  Al  Al2  1  0.62060945  0.10286243  0.15041513  1
  Al  Al3  1  0.23936490  0.24662311  0.26080076  1
  Al  Al4  1  0.09975902  0.12361542  0.62968508  1
  Al  Al5  1  0.62969609  0.48085993  0.09963975  1
  Al  Al6  1  0.26095392  0.58711699  0.23921926  1
  Al  Al7  1  0.15048096  0.46006244  0.62039598  1
  Al  Al8  1  0.64139652  0.12370420  0.62957457  1
  Al  Al9  1  0.62515400  0.29183796  0.62506067  1
  Al  Al10  1  0.62511366  0.79183772  0.12505643  1
  Al  Al11  1  0.12519465  0.79192329  0.62496375  1
  Al  Al12  1  0.60878820  0.46006262  0.62046724  1
  Al  Al13  1  0.62064993  0.64448206  0.60879985  1
  Al  Al14  1  0.62522445  0.79188537  0.62499880  1
  Al  Al15  1  0.62965479  0.93932138  0.64116835  1
  S  S16  1  0.37650527  0.03507929  0.38090776  1
  S  S17  1  0.38368647  0.20496817  0.38576361  1
  S  S18  1  0.87382419  0.03421949  0.38354165  1
  S  S19  1  0.38594089  0.35948874  0.38355139  1
  S  S20  1  0.84513380  0.20497744  0.38575641  1
  S  S21  1  0.38105776  0.54139048  0.37636567  1
  S  S22  1  0.38371535  0.04230272  0.87370185  1
  S  S23  1  0.39105316  0.22664919  0.84623556  1
  S  S24  1  0.85920086  0.35705364  0.40384366  1
  S  S25  1  0.39103512  0.70107308  0.37182135  1
  S  S26  1  0.86920708  0.04228323  0.87371935  1
  S  S27  1  0.86650269  0.54138487  0.37638940  1
  S  S28  1  0.37201783  0.86988858  0.39100176  1
  S  S29  1  0.40512627  0.37882120  0.86423223  1
  S  S30  1  0.37652272  0.54959452  0.86641866  1
  S  S31  1  0.86429770  0.22424789  0.86649149  1
  S  S32  1  0.86435194  0.68564470  0.40507105  1
  S  S33  1  0.86659251  0.37881909  0.86421802  1
  S  S34  1  0.84641321  0.86989282  0.39098477  1
  S  S35  1  0.40393273  0.71390235  0.85898493  1
  S  S36  1  0.87388998  0.54870260  0.86907013  1
  S  S37  1  0.38589344  0.89809488  0.84495984  1
  S  S38  1  0.87829545  0.71391903  0.85896693  1
  S  S39  1  0.85915037  0.88262603  0.87826112  1
