# generated using pymatgen
data_Nb2Tl4Se11
_symmetry_space_group_name_H-M   'P 1'
_cell_length_a   8.12386839
_cell_length_b   9.30079942
_cell_length_c   13.96234139
_cell_angle_alpha   107.33602027
_cell_angle_beta   89.34032281
_cell_angle_gamma   94.10545372
_symmetry_Int_Tables_number   1
_chemical_formula_structural   Nb2Tl4Se11
_chemical_formula_sum   'Nb4 Tl8 Se22'
_cell_volume   1004.41205196
_cell_formula_units_Z   2
loop_
 _symmetry_equiv_pos_site_id
 _symmetry_equiv_pos_as_xyz
  1  'x, y, z'
loop_
 _atom_site_type_symbol
 _atom_site_label
 _atom_site_symmetry_multiplicity
 _atom_site_fract_x
 _atom_site_fract_y
 _atom_site_fract_z
 _atom_site_occupancy
  Nb  Nb0  1  0.12193526  0.63280389  0.30366061  1
  Nb  Nb1  1  0.87806474  0.36719611  0.69633939  1
  Nb  Nb2  1  0.33640062  0.89224134  0.18803216  1
  Nb  Nb3  1  0.66359938  0.10775866  0.81196784  1
  Tl  Tl4  1  0.50640801  0.72336237  0.88804439  1
  Tl  Tl5  1  0.76284443  0.41561868  0.41855719  1
  Tl  Tl6  1  0.78814304  0.97777325  0.42585297  1
  Tl  Tl7  1  0.21185696  0.02222675  0.57414703  1
  Tl  Tl8  1  0.49359199  0.27663763  0.11195561  1
  Tl  Tl9  1  0.23715557  0.58438132  0.58144281  1
  Tl  Tl10  1  0.05260884  0.23928675  0.98212181  1
  Tl  Tl11  1  0.94739116  0.76071325  0.01787819  1
  Se  Se12  1  0.05273407  0.34221211  0.24797492  1
  Se  Se13  1  0.59842497  0.07939936  0.24932404  1
  Se  Se14  1  0.39131662  0.81748019  0.37245466  1
  Se  Se15  1  0.54482136  0.69073814  0.11818055  1
  Se  Se16  1  0.34765724  0.14235840  0.33401197  1
  Se  Se17  1  0.45517864  0.30926186  0.88181945  1
  Se  Se18  1  0.26533942  0.59859167  0.10934565  1
  Se  Se19  1  0.60023728  0.44428270  0.64827884  1
  Se  Se20  1  0.27033268  0.96302141  0.03927169  1
  Se  Se21  1  0.11926141  0.51031425  0.81536799  1
  Se  Se22  1  0.02893512  0.86775282  0.24883915  1
  Se  Se23  1  0.97106488  0.13224718  0.75116085  1
  Se  Se24  1  0.73466058  0.40140833  0.89065435  1
  Se  Se25  1  0.72966732  0.03697859  0.96072831  1
  Se  Se26  1  0.94726593  0.65778789  0.75202508  1
  Se  Se27  1  0.40157503  0.92060064  0.75067596  1
  Se  Se28  1  0.60868338  0.18251981  0.62754534  1
  Se  Se29  1  0.65234276  0.85764160  0.66598803  1
  Se  Se30  1  0.39976272  0.55571730  0.35172116  1
  Se  Se31  1  0.88073859  0.48968575  0.18463201  1
  Se  Se32  1  0.98183023  0.71072668  0.46608945  1
  Se  Se33  1  0.01816977  0.28927332  0.53391055  1
