# generated using pymatgen
data_CdI2
_symmetry_space_group_name_H-M   'P 1'
_cell_length_a   4.28574424
_cell_length_b   4.28574412
_cell_length_c   64.28903906
_cell_angle_alpha   90.00000000
_cell_angle_beta   90.00000000
_cell_angle_gamma   119.99998491
_symmetry_Int_Tables_number   1
_chemical_formula_structural   CdI2
_chemical_formula_sum   'Cd9 I18'
_cell_volume   1022.63374607
_cell_formula_units_Z   9
loop_
 _symmetry_equiv_pos_site_id
 _symmetry_equiv_pos_as_xyz
  1  'x, y, z'
loop_
 _atom_site_type_symbol
 _atom_site_label
 _atom_site_symmetry_multiplicity
 _atom_site_fract_x
 _atom_site_fract_y
 _atom_site_fract_z
 _atom_site_occupancy
  Cd  Cd0  1  0.00000000  -0.00000000  0.80565390  1
  Cd  Cd1  1  0.00000000  -0.00000000  0.91637777  1
  Cd  Cd2  1  0.00000000  -0.00000000  0.58363650  1
  Cd  Cd3  1  0.33333300  0.66666700  0.69464080  1
  Cd  Cd4  1  0.66666700  0.33333300  0.02754510  1
  Cd  Cd5  1  0.00000000  -0.00000000  0.13902101  1
  Cd  Cd6  1  0.00000000  -0.00000000  0.36100099  1
  Cd  Cd7  1  0.66666700  0.33333300  0.47211483  1
  Cd  Cd8  1  0.66666700  0.33333300  0.25000645  1
  I  I9  1  0.00000000  -0.00000000  0.22308619  1
  I  I10  1  0.66666700  0.33333300  0.33425591  1
  I  I11  1  0.66666700  0.33333300  0.55687798  1
  I  I12  1  0.00000000  -0.00000000  0.72156439  1
  I  I13  1  0.00000000  -0.00000000  0.44538859  1
  I  I14  1  0.33333300  0.66666700  0.27692154  1
  I  I15  1  0.33333300  0.66666700  0.05431671  1
  I  I16  1  0.33333300  0.66666700  0.61039398  1
  I  I17  1  0.66666700  0.33333300  0.88961437  1
  I  I18  1  0.33333300  0.66666700  0.94313163  1
  I  I19  1  0.66666700  0.33333300  0.11223189  1
  I  I20  1  0.00000000  -0.00000000  0.00079897  1
  I  I21  1  0.33333300  0.66666700  0.16577762  1
  I  I22  1  0.66666700  0.33333300  0.77889500  1
  I  I23  1  0.33333300  0.66666700  0.38776518  1
  I  I24  1  0.33333300  0.66666700  0.83241395  1
  I  I25  1  0.66666700  0.33333300  0.66773254  1
  I  I26  1  0.33333300  0.66666700  0.49883921  1
