# generated using pymatgen
data_NaZnAsO4
_symmetry_space_group_name_H-M   'P 1'
_cell_length_a   8.95508469
_cell_length_b   8.95508475
_cell_length_c   8.15856969
_cell_angle_alpha   90.00000000
_cell_angle_beta   90.00000000
_cell_angle_gamma   119.99999977
_symmetry_Int_Tables_number   1
_chemical_formula_structural   NaZnAsO4
_chemical_formula_sum   'Na6 Zn6 As6 O24'
_cell_volume   566.60976867
_cell_formula_units_Z   6
loop_
 _symmetry_equiv_pos_site_id
 _symmetry_equiv_pos_as_xyz
  1  'x, y, z'
loop_
 _atom_site_type_symbol
 _atom_site_label
 _atom_site_symmetry_multiplicity
 _atom_site_fract_x
 _atom_site_fract_y
 _atom_site_fract_z
 _atom_site_occupancy
  Na  Na0  1  0.33333300  0.66666700  0.68844776  1
  Na  Na1  1  0.66666700  0.33333300  0.18844776  1
  Na  Na2  1  -0.00000000  -0.00000000  0.20076648  1
  Na  Na3  1  -0.00000000  -0.00000000  0.70076648  1
  Na  Na4  1  0.33333300  0.66666700  0.27733674  1
  Na  Na5  1  0.66666700  0.33333300  0.77733674  1
  Zn  Zn6  1  0.66105490  0.98466385  0.39518937  1
  Zn  Zn7  1  0.67639105  0.66105490  0.89518937  1
  Zn  Zn8  1  0.98466385  0.32360895  0.89518937  1
  Zn  Zn9  1  0.33894510  0.01533615  0.89518937  1
  Zn  Zn10  1  0.32360895  0.33894510  0.39518937  1
  Zn  Zn11  1  0.01533615  0.67639105  0.39518937  1
  As  As12  1  0.68653697  0.65786450  0.50149310  1
  As  As13  1  0.02867347  0.68653697  0.00149310  1
  As  As14  1  0.65786450  0.97132653  0.00149310  1
  As  As15  1  0.34213550  0.02867347  0.50149310  1
  As  As16  1  0.97132653  0.31346303  0.50149310  1
  As  As17  1  0.31346303  0.34213550  0.00149310  1
  O  O18  1  0.60282932  0.86474258  0.18280374  1
  O  O19  1  0.89890542  0.46919168  0.98099048  1
  O  O20  1  0.57028626  0.10109458  0.98099048  1
  O  O21  1  0.42971374  0.89890542  0.48099048  1
  O  O22  1  0.10109458  0.53080832  0.48099048  1
  O  O23  1  0.53080832  0.42971374  0.98099048  1
  O  O24  1  0.77985118  0.87623965  0.49551909  1
  O  O25  1  0.90361053  0.77985118  0.99551909  1
  O  O26  1  0.87623965  0.09638947  0.99551909  1
  O  O27  1  0.12376035  0.90361053  0.49551909  1
  O  O28  1  0.09638947  0.22014882  0.49551909  1
  O  O29  1  0.22014882  0.12376035  0.99551909  1
  O  O30  1  0.22872047  0.41336430  0.85435490  1
  O  O31  1  0.81535617  0.22872047  0.35435490  1
  O  O32  1  0.73808674  0.60282932  0.68280374  1
  O  O33  1  0.58663570  0.81535617  0.85435490  1
  O  O34  1  0.18464383  0.77127953  0.85435490  1
  O  O35  1  0.77127953  0.58663570  0.35435490  1
  O  O36  1  0.26191326  0.39717068  0.18280374  1
  O  O37  1  0.86474258  0.26191326  0.68280374  1
  O  O38  1  0.39717068  0.13525742  0.68280374  1
  O  O39  1  0.41336430  0.18464383  0.35435490  1
  O  O40  1  0.13525742  0.73808674  0.18280374  1
  O  O41  1  0.46919168  0.57028626  0.48099048  1
