# generated using pymatgen
data_Rb2NbAgSe4
_symmetry_space_group_name_H-M   'P 1'
_cell_length_a   14.38913374
_cell_length_b   12.84197533
_cell_length_c   7.81512087
_cell_angle_alpha   84.58407111
_cell_angle_beta   62.68449415
_cell_angle_gamma   32.73143474
_symmetry_Int_Tables_number   1
_chemical_formula_structural   Rb2NbAgSe4
_chemical_formula_sum   'Rb4 Nb2 Ag2 Se8'
_cell_volume   551.30443552
_cell_formula_units_Z   2
loop_
 _symmetry_equiv_pos_site_id
 _symmetry_equiv_pos_as_xyz
  1  'x, y, z'
loop_
 _atom_site_type_symbol
 _atom_site_label
 _atom_site_symmetry_multiplicity
 _atom_site_fract_x
 _atom_site_fract_y
 _atom_site_fract_z
 _atom_site_occupancy
  Rb  Rb0  1  0.55989100  0.55482600  0.19168200  1
  Rb  Rb1  1  0.43867700  0.44802600  0.80601000  1
  Rb  Rb2  1  0.19492000  0.19133900  0.55130000  1
  Rb  Rb3  1  0.79673100  0.81262300  0.45211000  1
  Nb  Nb4  1  0.61716900  0.63237800  0.63365000  1
  Nb  Nb5  1  0.36798200  0.37964000  0.38316400  1
  Ag  Ag6  1  0.11888300  0.12764300  0.13016000  1
  Ag  Ag7  1  0.87773600  0.87622000  0.87340200  1
  Se  Se8  1  0.80131000  0.55937100  0.24693300  1
  Se  Se9  1  0.10680300  0.75562200  0.43498000  1
  Se  Se10  1  0.43611300  0.20329300  0.11205100  1
  Se  Se11  1  0.76021000  0.10522900  0.19781600  1
  Se  Se12  1  0.88103700  0.25366000  0.57307200  1
  Se  Se13  1  0.24962000  0.88282600  0.80228700  1
  Se  Se14  1  0.55792600  0.80827200  0.89493400  1
  Se  Se15  1  0.19604900  0.43581600  0.75800700  1
