# generated using pymatgen
data_Mg3ReH7
_symmetry_space_group_name_H-M   'P 1'
_cell_length_a   4.82451597
_cell_length_b   4.82452713
_cell_length_c   10.54654164
_cell_angle_alpha   89.99973791
_cell_angle_beta   90.00032646
_cell_angle_gamma   120.00441519
_symmetry_Int_Tables_number   1
_chemical_formula_structural   Mg3ReH7
_chemical_formula_sum   'Mg6 Re2 H14'
_cell_volume   212.58366060
_cell_formula_units_Z   2
loop_
 _symmetry_equiv_pos_site_id
 _symmetry_equiv_pos_as_xyz
  1  'x, y, z'
loop_
 _atom_site_type_symbol
 _atom_site_label
 _atom_site_symmetry_multiplicity
 _atom_site_fract_x
 _atom_site_fract_y
 _atom_site_fract_z
 _atom_site_occupancy
  Mg  Mg0  1  0.33331539  0.66669756  0.43202034  1
  Mg  Mg1  1  0.66662133  0.33338046  0.56798890  1
  Mg  Mg2  1  0.66657975  0.33334388  0.93198868  1
  Mg  Mg3  1  0.33325842  0.66665090  0.06805315  1
  Mg  Mg4  1  1.00007401  -0.00001301  0.25002076  1
  Mg  Mg5  1  1.00006929  -0.00002142  0.74999520  1
  Re  Re6  1  -0.00000529  1.00000267  0.49998685  1
  Re  Re7  1  -0.00007082  0.00001343  0.00001811  1
  H  H8  1  0.16880838  0.83122360  0.90214570  1
  H  H9  1  0.16882146  0.33758843  0.90213823  1
  H  H10  1  0.66242682  0.83120469  0.90213699  1
  H  H11  1  0.83124071  0.16879386  0.09785683  1
  H  H12  1  0.83123539  0.66242753  0.09785917  1
  H  H13  1  0.33758987  0.16878850  0.09785777  1
  H  H14  1  0.83120711  0.16877954  0.40213363  1
  H  H15  1  0.83120485  0.66239119  0.40212982  1
  H  H16  1  0.33760349  0.16878630  0.40213032  1
  H  H17  1  0.16877519  0.83121457  0.59784777  1
  H  H18  1  0.16878616  0.33754461  0.59785403  1
  H  H19  1  0.66244703  0.83120409  0.59785459  1
  H  H20  1  0.33334053  0.66666495  0.24998566  1
  H  H21  1  0.66667095  0.33333267  0.74999751  1
