# generated using pymatgen
data_Ag2SO4
_symmetry_space_group_name_H-M   'P 1'
_cell_length_a   8.46656755
_cell_length_b   6.86440369
_cell_length_c   6.38816674
_cell_angle_alpha   79.32484533
_cell_angle_beta   52.81935230
_cell_angle_gamma   47.85580237
_symmetry_Int_Tables_number   1
_chemical_formula_structural   Ag2SO4
_chemical_formula_sum   'Ag4 S2 O8'
_cell_volume   203.50841288
_cell_formula_units_Z   2
loop_
 _symmetry_equiv_pos_site_id
 _symmetry_equiv_pos_as_xyz
  1  'x, y, z'
loop_
 _atom_site_type_symbol
 _atom_site_label
 _atom_site_symmetry_multiplicity
 _atom_site_fract_x
 _atom_site_fract_y
 _atom_site_fract_z
 _atom_site_occupancy
  Ag  Ag0  1  0.82254600  0.42617400  0.83398700  1
  Ag  Ag1  1  0.42800500  0.81753100  0.41932600  1
  Ag  Ag2  1  0.17727200  0.57686200  0.17988000  1
  Ag  Ag3  1  0.57585900  0.18152800  0.57483400  1
  S  S4  1  0.12632900  0.12425500  0.13184600  1
  S  S5  1  0.87046700  0.87232800  0.87583000  1
  O  O6  1  0.27657200  0.11375200  0.82564200  1
  O  O7  1  0.29163600  0.82289600  0.11161800  1
  O  O8  1  0.83618300  0.28293700  0.26098200  1
  O  O9  1  0.12633600  0.25718900  0.27821000  1
  O  O10  1  0.74063700  0.87474600  0.16038400  1
  O  O11  1  0.70778800  0.18054400  0.88302100  1
  O  O12  1  0.88872400  0.72681800  0.70926100  1
  O  O13  1  0.16691700  0.72424000  0.74105400  1
