# generated using pymatgen
data_Cs4Re6S13
_symmetry_space_group_name_H-M   'P 1'
_cell_length_a   10.00711253
_cell_length_b   10.00711253
_cell_length_c   13.79824178
_cell_angle_alpha   84.74228369
_cell_angle_beta   84.74228369
_cell_angle_gamma   119.35139039
_symmetry_Int_Tables_number   1
_chemical_formula_structural   Cs4Re6S13
_chemical_formula_sum   'Cs8 Re12 S26'
_cell_volume   1184.40459880
_cell_formula_units_Z   2
loop_
 _symmetry_equiv_pos_site_id
 _symmetry_equiv_pos_as_xyz
  1  'x, y, z'
loop_
 _atom_site_type_symbol
 _atom_site_label
 _atom_site_symmetry_multiplicity
 _atom_site_fract_x
 _atom_site_fract_y
 _atom_site_fract_z
 _atom_site_occupancy
  Cs  Cs0  1  0.09196200  0.34076633  0.58667950  1
  Cs  Cs1  1  0.90803800  0.65923367  0.41332050  1
  Cs  Cs2  1  0.65923367  0.90803800  0.91332050  1
  Cs  Cs3  1  0.34076633  0.09196200  0.08667950  1
  Cs  Cs4  1  0.72421134  0.68330605  0.71491055  1
  Cs  Cs5  1  0.68330605  0.72421134  0.21491055  1
  Cs  Cs6  1  0.31669395  0.27578866  0.78508945  1
  Cs  Cs7  1  0.27578866  0.31669395  0.28508945  1
  Re  Re8  1  0.99570541  0.31108056  0.02163904  1
  Re  Re9  1  0.68891944  0.00429459  0.47836096  1
  Re  Re10  1  0.15334061  0.56482750  0.89081133  1
  Re  Re11  1  0.41723673  0.84934770  0.42086828  1
  Re  Re12  1  0.56482750  0.15334061  0.39081133  1
  Re  Re13  1  0.43517250  0.84665939  0.60918867  1
  Re  Re14  1  0.84665939  0.43517250  0.10918867  1
  Re  Re15  1  0.15065230  0.58276327  0.07913172  1
  Re  Re16  1  0.84934770  0.41723673  0.92086828  1
  Re  Re17  1  0.31108056  0.99570541  0.52163904  1
  Re  Re18  1  0.58276327  0.15065230  0.57913172  1
  Re  Re19  1  0.00429459  0.68891944  0.97836096  1
  S  S20  1  0.72130252  0.35794732  0.67428802  1
  S  S21  1  0.64121889  0.35878111  0.25000000  1
  S  S22  1  0.95292629  0.02358879  0.43862002  1
  S  S23  1  0.27756720  0.46208125  0.99457246  1
  S  S24  1  0.00545655  0.69137336  0.15268320  1
  S  S25  1  0.53791875  0.72243280  0.50542754  1
  S  S26  1  0.35794732  0.72130252  0.17428802  1
  S  S27  1  0.99454345  0.30862664  0.84731680  1
  S  S28  1  0.69137336  0.00545655  0.65268320  1
  S  S29  1  0.46208125  0.27756720  0.49457246  1
  S  S30  1  0.02358879  0.95292629  0.93862002  1
  S  S31  1  0.80764281  0.28230918  0.45068112  1
  S  S32  1  0.19235719  0.71769082  0.54931888  1
  S  S33  1  0.27869748  0.64205268  0.32571198  1
  S  S34  1  0.30862664  0.99454345  0.34731680  1
  S  S35  1  0.04707371  0.97641121  0.56137998  1
  S  S36  1  0.64205268  0.27869748  0.82571198  1
  S  S37  1  0.99174633  0.34365680  0.19295025  1
  S  S38  1  0.34365680  0.99174633  0.69295025  1
  S  S39  1  0.72243280  0.53791875  0.00542754  1
  S  S40  1  0.35878111  0.64121889  0.75000000  1
  S  S41  1  0.00825367  0.65634320  0.80704975  1
  S  S42  1  0.65634320  0.00825367  0.30704975  1
  S  S43  1  0.71769082  0.19235719  0.04931888  1
  S  S44  1  0.97641121  0.04707371  0.06137998  1
  S  S45  1  0.28230918  0.80764281  0.95068112  1
