# generated using pymatgen
data_CdI2
_symmetry_space_group_name_H-M   'P 1'
_cell_length_a   4.28266299
_cell_length_b   4.28266319
_cell_length_c   71.66248870
_cell_angle_alpha   90.00000000
_cell_angle_beta   90.00000000
_cell_angle_gamma   120.00000635
_symmetry_Int_Tables_number   1
_chemical_formula_structural   CdI2
_chemical_formula_sum   'Cd10 I20'
_cell_volume   1138.28316221
_cell_formula_units_Z   10
loop_
 _symmetry_equiv_pos_site_id
 _symmetry_equiv_pos_as_xyz
  1  'x, y, z'
loop_
 _atom_site_type_symbol
 _atom_site_label
 _atom_site_symmetry_multiplicity
 _atom_site_fract_x
 _atom_site_fract_y
 _atom_site_fract_z
 _atom_site_occupancy
  Cd  Cd0  1  0.66666700  0.33333300  0.22499855  1
  Cd  Cd1  1  0.66666700  0.33333300  0.72499958  1
  Cd  Cd2  1  0.00000000  0.00000000  0.82499594  1
  Cd  Cd3  1  0.66666700  0.33333300  0.42500177  1
  Cd  Cd4  1  -0.00000000  0.00000000  0.92500035  1
  Cd  Cd5  1  0.66666700  0.33333300  0.02499746  1
  Cd  Cd6  1  0.00000000  0.00000000  0.32500242  1
  Cd  Cd7  1  -0.00000000  0.00000000  0.52500047  1
  Cd  Cd8  1  -0.00000000  0.00000000  0.12500458  1
  Cd  Cd9  1  -0.00000000  0.00000000  0.62499694  1
  I  I10  1  0.00000000  0.00000000  0.20094553  1
  I  I11  1  0.33333300  0.66666700  0.44905440  1
  I  I12  1  0.33333300  0.66666700  0.34905386  1
  I  I13  1  0.66666700  0.33333300  0.10095245  1
  I  I14  1  0.66666700  0.33333300  0.90094602  1
  I  I15  1  0.33333300  0.66666700  0.94904927  1
  I  I16  1  0.00000000  0.00000000  0.40094571  1
  I  I17  1  0.33333300  0.66666700  0.04905490  1
  I  I18  1  0.66666700  0.33333300  0.30094583  1
  I  I19  1  0.00000000  -0.00000000  0.00094563  1
  I  I20  1  0.33333300  0.66666700  0.54905515  1
  I  I21  1  0.66666700  0.33333300  0.60094806  1
  I  I22  1  0.33333300  0.66666700  0.14905400  1
  I  I23  1  0.33333300  0.66666700  0.24905356  1
  I  I24  1  0.00000000  0.00000000  0.70094901  1
  I  I25  1  0.66666700  0.33333300  0.50094463  1
  I  I26  1  0.33333300  0.66666700  0.84905211  1
  I  I27  1  0.33333300  0.66666700  0.64905347  1
  I  I28  1  0.66666700  0.33333300  0.80094554  1
  I  I29  1  0.33333300  0.66666700  0.74905482  1
