# generated using pymatgen
data_CdI2
_symmetry_space_group_name_H-M   'P 1'
_cell_length_a   4.28794022
_cell_length_b   4.28794022
_cell_length_c   109.15581984
_cell_angle_alpha   90.00000000
_cell_angle_beta   90.00000000
_cell_angle_gamma   120.00000036
_symmetry_Int_Tables_number   1
_chemical_formula_structural   CdI2
_chemical_formula_sum   'Cd15 I30'
_cell_volume   1738.10084511
_cell_formula_units_Z   15
loop_
 _symmetry_equiv_pos_site_id
 _symmetry_equiv_pos_as_xyz
  1  'x, y, z'
loop_
 _atom_site_type_symbol
 _atom_site_label
 _atom_site_symmetry_multiplicity
 _atom_site_fract_x
 _atom_site_fract_y
 _atom_site_fract_z
 _atom_site_occupancy
  Cd  Cd0  1  0.00000000  -0.00000000  0.01667918  1
  Cd  Cd1  1  0.00000000  -0.00000000  0.81667539  1
  Cd  Cd2  1  0.33333300  0.66666700  0.41665896  1
  Cd  Cd3  1  0.00000000  -0.00000000  0.61667454  1
  Cd  Cd4  1  0.00000000  -0.00000000  0.35000493  1
  Cd  Cd5  1  0.33333300  0.66666700  0.54999815  1
  Cd  Cd6  1  0.33333300  0.66666700  0.94999826  1
  Cd  Cd7  1  0.00000000  -0.00000000  0.28334000  1
  Cd  Cd8  1  0.33333300  0.66666700  0.21665377  1
  Cd  Cd9  1  0.33333300  0.66666700  0.68332865  1
  Cd  Cd10  1  0.00000000  -0.00000000  0.15000665  1
  Cd  Cd11  1  0.00000000  -0.00000000  0.48333716  1
  Cd  Cd12  1  0.33333300  0.66666700  0.08333148  1
  Cd  Cd13  1  0.33333300  0.66666700  0.88333135  1
  Cd  Cd14  1  0.33333300  0.66666700  0.74997801  1
  I  I15  1  0.66666700  0.33333300  0.56577711  1
  I  I16  1  0.33333300  0.66666700  0.80089081  1
  I  I17  1  0.66666700  0.33333300  0.16577694  1
  I  I18  1  0.66666700  0.33333300  0.36577758  1
  I  I19  1  0.66666700  0.33333300  0.89911007  1
  I  I20  1  0.33333300  0.66666700  0.46755728  1
  I  I21  1  0.66666700  0.33333300  0.96577685  1
  I  I22  1  0.66666700  0.33333300  0.23244298  1
  I  I23  1  0.00000000  -0.00000000  0.40088991  1
  I  I24  1  0.66666700  0.33333300  0.69911007  1
  I  I25  1  0.33333300  0.66666700  0.60089189  1
  I  I26  1  0.00000000  -0.00000000  0.86755762  1
  I  I27  1  0.66666700  0.33333300  0.76577570  1
  I  I28  1  0.00000000  -0.00000000  0.73422243  1
  I  I29  1  0.66666700  0.33333300  0.63244366  1
  I  I30  1  0.00000000  -0.00000000  0.20089255  1
  I  I31  1  0.00000000  -0.00000000  0.53422323  1
  I  I32  1  0.66666700  0.33333300  0.09910994  1
  I  I33  1  0.33333300  0.66666700  0.00088970  1
  I  I34  1  0.33333300  0.66666700  0.13422337  1
  I  I35  1  0.00000000  -0.00000000  0.06755664  1
  I  I36  1  0.66666700  0.33333300  0.03244345  1
  I  I37  1  0.33333300  0.66666700  0.26755641  1
  I  I38  1  0.66666700  0.33333300  0.29911047  1
  I  I39  1  0.33333300  0.66666700  0.33422298  1
  I  I40  1  0.00000000  -0.00000000  0.93422311  1
  I  I41  1  0.66666700  0.33333300  0.83244359  1
  I  I42  1  0.00000000  -0.00000000  0.66755638  1
  I  I43  1  0.66666700  0.33333300  0.43244057  1
  I  I44  1  0.66666700  0.33333300  0.49910924  1
