# generated using pymatgen
data_Cs5GeAs3
_symmetry_space_group_name_H-M   'P 1'
_cell_length_a   6.06456976
_cell_length_b   14.74317261
_cell_length_c   16.15651780
_cell_angle_alpha   90.00000000
_cell_angle_beta   90.00000000
_cell_angle_gamma   90.00000000
_symmetry_Int_Tables_number   1
_chemical_formula_structural   Cs5GeAs3
_chemical_formula_sum   'Cs20 Ge4 As12'
_cell_volume   1444.57039326
_cell_formula_units_Z   4
loop_
 _symmetry_equiv_pos_site_id
 _symmetry_equiv_pos_as_xyz
  1  'x, y, z'
loop_
 _atom_site_type_symbol
 _atom_site_label
 _atom_site_symmetry_multiplicity
 _atom_site_fract_x
 _atom_site_fract_y
 _atom_site_fract_z
 _atom_site_occupancy
  Cs  Cs0  1  0.75000000  0.14577242  0.54733188  1
  Cs  Cs1  1  0.25000000  0.77812946  0.70660450  1
  Cs  Cs2  1  0.25000000  0.05080269  0.65388046  1
  Cs  Cs3  1  0.25000000  0.06497144  0.95020530  1
  Cs  Cs4  1  0.75000000  0.94919731  0.34611954  1
  Cs  Cs5  1  0.25000000  0.61960713  0.31436211  1
  Cs  Cs6  1  0.75000000  0.43502856  0.45020530  1
  Cs  Cs7  1  0.75000000  0.64577242  0.95266812  1
  Cs  Cs8  1  0.25000000  0.56497144  0.54979470  1
  Cs  Cs9  1  0.25000000  0.35422758  0.04733188  1
  Cs  Cs10  1  0.25000000  0.55080269  0.84611954  1
  Cs  Cs11  1  0.75000000  0.22187054  0.29339550  1
  Cs  Cs12  1  0.75000000  0.88039287  0.81436211  1
  Cs  Cs13  1  0.75000000  0.44919731  0.15388046  1
  Cs  Cs14  1  0.25000000  0.85422758  0.45266812  1
  Cs  Cs15  1  0.25000000  0.27812946  0.79339550  1
  Cs  Cs16  1  0.75000000  0.38039287  0.68563789  1
  Cs  Cs17  1  0.25000000  0.11960713  0.18563789  1
  Cs  Cs18  1  0.75000000  0.93502856  0.04979470  1
  Cs  Cs19  1  0.75000000  0.72187054  0.20660450  1
  Ge  Ge20  1  0.25000000  0.76053400  0.06833199  1
  Ge  Ge21  1  0.75000000  0.23946600  0.93166801  1
  Ge  Ge22  1  0.75000000  0.73946600  0.56833199  1
  Ge  Ge23  1  0.25000000  0.26053400  0.43166801  1
  As  As24  1  0.75000000  0.39875152  0.91112353  1
  As  As25  1  0.75000000  0.63424924  0.68038045  1
  As  As26  1  0.25000000  0.60124848  0.08887647  1
  As  As27  1  0.25000000  0.10124848  0.41112353  1
  As  As28  1  0.25000000  0.80963242  0.92898368  1
  As  As29  1  0.25000000  0.86575076  0.18038045  1
  As  As30  1  0.75000000  0.19036758  0.07101632  1
  As  As31  1  0.75000000  0.89875152  0.58887647  1
  As  As32  1  0.75000000  0.13424924  0.81961955  1
  As  As33  1  0.25000000  0.30963242  0.57101632  1
  As  As34  1  0.25000000  0.36575076  0.31961955  1
  As  As35  1  0.75000000  0.69036758  0.42898368  1
