# generated using pymatgen
data_Nb2PS10
_symmetry_space_group_name_H-M   'P 1'
_cell_length_a   7.49220854
_cell_length_b   13.06050131
_cell_length_c   14.30092519
_cell_angle_alpha   90.00000000
_cell_angle_beta   90.00000000
_cell_angle_gamma   90.00000000
_symmetry_Int_Tables_number   1
_chemical_formula_structural   Nb2PS10
_chemical_formula_sum   'Nb8 P4 S40'
_cell_volume   1399.37412385
_cell_formula_units_Z   4
loop_
 _symmetry_equiv_pos_site_id
 _symmetry_equiv_pos_as_xyz
  1  'x, y, z'
loop_
 _atom_site_type_symbol
 _atom_site_label
 _atom_site_symmetry_multiplicity
 _atom_site_fract_x
 _atom_site_fract_y
 _atom_site_fract_z
 _atom_site_occupancy
  Nb  Nb0  1  0.94259880  0.91624969  0.25144616  1
  Nb  Nb1  1  0.93037579  0.20819910  0.24771701  1
  Nb  Nb2  1  0.05740120  0.58375031  0.75144616  1
  Nb  Nb3  1  0.05740120  0.41624969  0.24855384  1
  Nb  Nb4  1  0.06962421  0.29180090  0.74771701  1
  Nb  Nb5  1  0.93037579  0.79180090  0.75228299  1
  Nb  Nb6  1  0.94259880  0.08375031  0.74855384  1
  Nb  Nb7  1  0.06962421  0.70819910  0.25228299  1
  P  P8  1  0.63895711  0.05579723  0.15024880  1
  P  P9  1  0.36104289  0.44420277  0.65024880  1
  P  P10  1  0.36104289  0.55579723  0.34975120  1
  P  P11  1  0.63895711  0.94420277  0.84975120  1
  S  S12  1  0.81392467  0.34875458  0.35179261  1
  S  S13  1  0.86428293  0.56578204  0.18749980  1
  S  S14  1  0.11209036  0.56305817  0.12920334  1
  S  S15  1  0.88790964  0.06305817  0.37079666  1
  S  S16  1  0.52856010  0.42938259  0.53191938  1
  S  S17  1  0.83410459  0.22239335  0.64038112  1
  S  S18  1  0.83410459  0.77760665  0.35961888  1
  S  S19  1  0.13571707  0.06578204  0.31250020  1
  S  S20  1  0.58564796  0.81262244  0.78235980  1
  S  S21  1  0.59819334  0.07569414  0.78104983  1
  S  S22  1  0.86428293  0.43421796  0.81250020  1
  S  S23  1  0.90622475  0.05992196  0.12002666  1
  S  S24  1  0.90622475  0.94007804  0.87997334  1
  S  S25  1  0.09377525  0.44007804  0.62002666  1
  S  S26  1  0.09377525  0.55992196  0.37997334  1
  S  S27  1  0.47143990  0.92938259  0.96808062  1
  S  S28  1  0.81392467  0.65124542  0.64820739  1
  S  S29  1  0.16589541  0.27760665  0.14038112  1
  S  S30  1  0.88790964  0.93694183  0.62920334  1
  S  S31  1  0.41435204  0.68737756  0.28235980  1
  S  S32  1  0.06127963  0.29866116  0.38632243  1
  S  S33  1  0.93872037  0.79866116  0.11367757  1
  S  S34  1  0.41435204  0.31262244  0.71764020  1
  S  S35  1  0.91686961  0.32856481  0.11066370  1
  S  S36  1  0.59819334  0.92430586  0.21895017  1
  S  S37  1  0.40180666  0.57569414  0.71895017  1
  S  S38  1  0.47143990  0.07061741  0.03191938  1
  S  S39  1  0.11209036  0.43694183  0.87079666  1
  S  S40  1  0.91686961  0.67143519  0.88933630  1
  S  S41  1  0.16589541  0.72239335  0.85961888  1
  S  S42  1  0.08313039  0.17143519  0.61066370  1
  S  S43  1  0.40180666  0.42430586  0.28104983  1
  S  S44  1  0.06127963  0.70133884  0.61367757  1
  S  S45  1  0.52856010  0.57061741  0.46808062  1
  S  S46  1  0.13571707  0.93421796  0.68749980  1
  S  S47  1  0.18607533  0.84875458  0.14820739  1
  S  S48  1  0.08313039  0.82856481  0.38933630  1
  S  S49  1  0.58564796  0.18737756  0.21764020  1
  S  S50  1  0.18607533  0.15124542  0.85179261  1
  S  S51  1  0.93872037  0.20133884  0.88632243  1
