# generated using pymatgen
data_Rb2Ti(GeO3)3
_symmetry_space_group_name_H-M   'P 1'
_cell_length_a   12.28850878
_cell_length_b   12.28850878
_cell_length_c   10.71009400
_cell_angle_alpha   90.00000000
_cell_angle_beta   90.00000000
_cell_angle_gamma   120.00000418
_symmetry_Int_Tables_number   1
_chemical_formula_structural   Rb2Ti(GeO3)3
_chemical_formula_sum   'Rb12 Ti6 Ge18 O54'
_cell_volume   1400.62625804
_cell_formula_units_Z   6
loop_
 _symmetry_equiv_pos_site_id
 _symmetry_equiv_pos_as_xyz
  1  'x, y, z'
loop_
 _atom_site_type_symbol
 _atom_site_label
 _atom_site_symmetry_multiplicity
 _atom_site_fract_x
 _atom_site_fract_y
 _atom_site_fract_z
 _atom_site_occupancy
  Rb  Rb0  1  0.64090700  0.64574600  0.47639200  1
  Rb  Rb1  1  0.64574600  0.64090700  0.02360800  1
  Rb  Rb2  1  0.99516100  0.64090700  0.52360800  1
  Rb  Rb3  1  0.35909300  0.00483900  0.02360800  1
  Rb  Rb4  1  0.35425400  0.99516100  0.47639200  1
  Rb  Rb5  1  0.00483900  0.35909300  0.47639200  1
  Rb  Rb6  1  0.64574600  0.00483900  0.52360800  1
  Rb  Rb7  1  0.00483900  0.64574600  0.97639200  1
  Rb  Rb8  1  0.64090700  0.99516100  0.97639200  1
  Rb  Rb9  1  0.35425400  0.35909300  0.97639200  1
  Rb  Rb10  1  0.99516100  0.35425400  0.02360800  1
  Rb  Rb11  1  0.35909300  0.35425400  0.52360800  1
  Ti  Ti12  1  0.33333300  0.66666700  0.99719500  1
  Ti  Ti13  1  0.00000000  0.00000000  0.50000000  1
  Ti  Ti14  1  0.66666700  0.33333300  0.50280500  1
  Ti  Ti15  1  0.33333300  0.66666700  0.49719500  1
  Ti  Ti16  1  0.66666700  0.33333300  0.00280500  1
  Ti  Ti17  1  0.00000000  0.00000000  0.00000000  1
  Ge  Ge18  1  0.83276100  0.28565100  0.75744500  1
  Ge  Ge19  1  0.54711000  0.83276100  0.24255500  1
  Ge  Ge20  1  0.83276100  0.54711000  0.25744500  1
  Ge  Ge21  1  0.28565100  0.83276100  0.74255500  1
  Ge  Ge22  1  0.71434900  0.16723900  0.25744500  1
  Ge  Ge23  1  0.16723900  0.45289000  0.74255500  1
  Ge  Ge24  1  0.17711600  0.17711600  0.75000000  1
  Ge  Ge25  1  0.45289000  0.28565100  0.25744500  1
  Ge  Ge26  1  0.45289000  0.16723900  0.75744500  1
  Ge  Ge27  1  0.71434900  0.54711000  0.75744500  1
  Ge  Ge28  1  0.28565100  0.45289000  0.24255500  1
  Ge  Ge29  1  0.17711600  0.00000000  0.25000000  1
  Ge  Ge30  1  0.00000000  0.17711600  0.25000000  1
  Ge  Ge31  1  0.82288400  0.82288400  0.25000000  1
  Ge  Ge32  1  0.16723900  0.71434900  0.24255500  1
  Ge  Ge33  1  0.00000000  0.82288400  0.75000000  1
  Ge  Ge34  1  0.82288400  0.00000000  0.75000000  1
  Ge  Ge35  1  0.54711000  0.71434900  0.74255500  1
  O  O36  1  0.61750800  0.61750800  0.75000000  1
  O  O37  1  0.20603600  0.87277300  0.20841300  1
  O  O38  1  0.05480100  0.90721500  0.88899100  1
  O  O39  1  0.20603600  0.33326300  0.70841300  1
  O  O40  1  0.65275500  0.19921400  0.39141000  1
  O  O41  1  0.87277300  0.66673700  0.79158700  1
  O  O42  1  0.77357900  0.29120600  0.61081900  1
  O  O43  1  0.00000000  0.61750800  0.25000000  1
  O  O44  1  0.29120600  0.77357900  0.88918100  1
  O  O45  1  0.48237300  0.70879400  0.88918100  1
  O  O46  1  0.00000000  0.38249200  0.75000000  1
  O  O47  1  0.12722700  0.33326300  0.20841300  1
  O  O48  1  0.94519900  0.85241400  0.61100900  1
  O  O49  1  0.51762700  0.29120600  0.11081900  1
  O  O50  1  0.70879400  0.22642100  0.11081900  1
  O  O51  1  0.22642100  0.51762700  0.88918100  1
  O  O52  1  0.66673700  0.79396400  0.20841300  1
  O  O53  1  0.05480100  0.14758600  0.38899100  1
  O  O54  1  0.14758600  0.09278500  0.61100900  1
  O  O55  1  0.54645900  0.19921400  0.89141000  1
  O  O56  1  0.29120600  0.51762700  0.38918100  1
  O  O57  1  0.61750800  0.00000000  0.25000000  1
  O  O58  1  0.65275500  0.45354100  0.89141000  1
  O  O59  1  0.85241400  0.94519900  0.88899100  1
  O  O60  1  0.70879400  0.48237300  0.61081900  1
  O  O61  1  0.48237300  0.77357900  0.38918100  1
  O  O62  1  0.09278500  0.14758600  0.88899100  1
  O  O63  1  0.45354100  0.80078600  0.10859000  1
  O  O64  1  0.90721500  0.85241400  0.11100900  1
  O  O65  1  0.22642100  0.70879400  0.38918100  1
  O  O66  1  0.80078600  0.34724500  0.89141000  1
  O  O67  1  0.79396400  0.12722700  0.79158700  1
  O  O68  1  0.77357900  0.48237300  0.11081900  1
  O  O69  1  0.33326300  0.12722700  0.29158700  1
  O  O70  1  0.34724500  0.54645900  0.10859000  1
  O  O71  1  0.54645900  0.34724500  0.39141000  1
  O  O72  1  0.85241400  0.90721500  0.38899100  1
  O  O73  1  0.19921400  0.54645900  0.60859000  1
  O  O74  1  0.38249200  0.00000000  0.75000000  1
  O  O75  1  0.90721500  0.05480100  0.61100900  1
  O  O76  1  0.87277300  0.20603600  0.29158700  1
  O  O77  1  0.79396400  0.66673700  0.29158700  1
  O  O78  1  0.38249200  0.38249200  0.25000000  1
  O  O79  1  0.19921400  0.65275500  0.10859000  1
  O  O80  1  0.51762700  0.22642100  0.61081900  1
  O  O81  1  0.12722700  0.79396400  0.70841300  1
  O  O82  1  0.09278500  0.94519900  0.38899100  1
  O  O83  1  0.94519900  0.09278500  0.11100900  1
  O  O84  1  0.45354100  0.65275500  0.60859000  1
  O  O85  1  0.33326300  0.20603600  0.79158700  1
  O  O86  1  0.34724500  0.80078600  0.60859000  1
  O  O87  1  0.14758600  0.05480100  0.11100900  1
  O  O88  1  0.66673700  0.87277300  0.70841300  1
  O  O89  1  0.80078600  0.45354100  0.39141000  1
