# generated using pymatgen
data_Ba6Mg7H26
_symmetry_space_group_name_H-M   'P 1'
_cell_length_a   9.99381147
_cell_length_b   9.99367498
_cell_length_c   9.99370228
_cell_angle_alpha   146.27428808
_cell_angle_beta   106.63723972
_cell_angle_gamma   83.22269197
_symmetry_Int_Tables_number   1
_chemical_formula_structural   Ba6Mg7H26
_chemical_formula_sum   'Ba6 Mg7 H26'
_cell_volume   517.26221051
_cell_formula_units_Z   1
loop_
 _symmetry_equiv_pos_site_id
 _symmetry_equiv_pos_as_xyz
  1  'x, y, z'
loop_
 _atom_site_type_symbol
 _atom_site_label
 _atom_site_symmetry_multiplicity
 _atom_site_fract_x
 _atom_site_fract_y
 _atom_site_fract_z
 _atom_site_occupancy
  Ba  Ba0  1  0.90704210  0.64753602  0.25949535  1
  Ba  Ba1  1  0.09295690  0.35246342  0.74050556  1
  Ba  Ba2  1  0.61194286  0.35245482  0.25948821  1
  Ba  Ba3  1  0.38805726  0.64754576  0.74051107  1
  Ba  Ba4  1  0.64381349  0.14380468  0.50000109  1
  Ba  Ba5  1  0.35618679  0.85619715  0.50000039  1
  Mg  Mg6  1  0.78188700  0.78188507  -0.00000922  1
  Mg  Mg7  1  0.21811260  0.21811399  0.00000920  1
  Mg  Mg8  1  0.25811972  0.00000396  0.25811748  1
  Mg  Mg9  1  0.74188060  -0.00000372  0.74188277  1
  Mg  Mg10  1  -0.00001237  0.25410849  0.25410858  1
  Mg  Mg11  1  0.00001277  0.74589161  0.74589218  1
  Mg  Mg12  1  0.49999892  0.50000010  -0.00000086  1
  H  H13  1  0.86650691  0.98510957  0.34207260  1
  H  H14  1  0.13348917  0.47558984  0.11862855  1
  H  H15  1  0.35697243  0.01488075  0.88139259  1
  H  H16  1  0.64302801  0.52442347  0.65791255  1
  H  H17  1  0.13349294  0.01488995  0.65792702  1
  H  H18  1  0.86651093  0.52441027  0.88137189  1
  H  H19  1  0.64302763  0.98511970  0.11860768  1
  H  H20  1  0.35697205  0.47557640  0.34208719  1
  H  H21  1  0.38533345  0.24979449  0.63513510  1
  H  H22  1  0.61466809  0.24980614  0.86447586  1
  H  H23  1  0.38533200  0.75019432  0.13552445  1
  H  H24  1  0.61466654  0.75020518  0.36486462  1
  H  H25  1  0.16197963  0.26387831  0.42585692  1
  H  H26  1  0.83801935  0.26387773  0.10190000  1
  H  H27  1  0.16198077  0.73612154  0.89809900  1
  H  H28  1  0.83802070  0.73612163  0.57414287  1
  H  H29  1  0.14808707  0.87318135  0.27485296  1
  H  H30  1  0.85191311  0.12681879  0.72514727  1
  H  H31  1  0.40168632  0.12680705  0.27489775  1
  H  H32  1  0.59831410  0.87319337  0.72510269  1
  H  H33  1  0.91120911  0.41121323  0.50000226  1
  H  H34  1  0.08879105  0.58878634  0.49999703  1
  H  H35  1  0.91331974  0.91333189  0.00000330  1
  H  H36  1  0.08668012  0.08666722  -0.00000390  1
  H  H37  1  0.62872405  0.62874450  0.00000372  1
  H  H38  1  0.37127608  0.37125563  -0.00000376  1
