# generated using pymatgen
data_B2Pb2S5
_symmetry_space_group_name_H-M   'P 1'
_cell_length_a   9.70579333
_cell_length_b   9.70579333
_cell_length_c   15.64761385
_cell_angle_alpha   90.00000000
_cell_angle_beta   90.00000000
_cell_angle_gamma   90.00000000
_symmetry_Int_Tables_number   1
_chemical_formula_structural   B2Pb2S5
_chemical_formula_sum   'B16 Pb16 S40'
_cell_volume   1474.04315706
_cell_formula_units_Z   8
loop_
 _symmetry_equiv_pos_site_id
 _symmetry_equiv_pos_as_xyz
  1  'x, y, z'
loop_
 _atom_site_type_symbol
 _atom_site_label
 _atom_site_symmetry_multiplicity
 _atom_site_fract_x
 _atom_site_fract_y
 _atom_site_fract_z
 _atom_site_occupancy
  B  B0  1  0.92513732  0.77141303  0.43062639  1
  B  B1  1  0.56899217  0.59377080  0.81557423  1
  B  B2  1  0.77141303  0.92513732  0.56937361  1
  B  B3  1  0.72858697  0.42513732  0.68062639  1
  B  B4  1  0.90622920  0.06899217  0.06557423  1
  B  B5  1  0.57486268  0.27141303  0.81937361  1
  B  B6  1  0.09377080  0.93100783  0.56557423  1
  B  B7  1  0.40622920  0.43100783  0.68442577  1
  B  B8  1  0.59377080  0.56899217  0.18442577  1
  B  B9  1  0.07486268  0.22858697  0.93062639  1
  B  B10  1  0.27141303  0.57486268  0.18062639  1
  B  B11  1  0.22858697  0.07486268  0.06937361  1
  B  B12  1  0.93100783  0.09377080  0.43442577  1
  B  B13  1  0.42513732  0.72858697  0.31937361  1
  B  B14  1  0.43100783  0.40622920  0.31557423  1
  B  B15  1  0.06899217  0.90622920  0.93442577  1
  Pb  Pb16  1  0.73265546  0.44306581  0.42975609  1
  Pb  Pb17  1  0.54977914  0.85528866  0.08793352  1
  Pb  Pb18  1  0.05693419  0.23265546  0.67975609  1
  Pb  Pb19  1  0.95022086  0.35528866  0.16206648  1
  Pb  Pb20  1  0.55693419  0.26734454  0.07024391  1
  Pb  Pb21  1  0.04977914  0.64471134  0.66206648  1
  Pb  Pb22  1  0.85528866  0.54977914  0.91206648  1
  Pb  Pb23  1  0.45022086  0.14471134  0.58793352  1
  Pb  Pb24  1  0.64471134  0.04977914  0.33793352  1
  Pb  Pb25  1  0.76734454  0.94306581  0.82024391  1
  Pb  Pb26  1  0.14471134  0.45022086  0.41206648  1
  Pb  Pb27  1  0.26734454  0.55693419  0.92975609  1
  Pb  Pb28  1  0.23265546  0.05693419  0.32024391  1
  Pb  Pb29  1  0.35528866  0.95022086  0.83793352  1
  Pb  Pb30  1  0.94306581  0.76734454  0.17975609  1
  Pb  Pb31  1  0.44306581  0.73265546  0.57024391  1
  S  S32  1  0.93290285  0.93366860  0.35993483  1
  S  S33  1  0.73561897  0.59399000  0.74803424  1
  S  S34  1  0.57277024  0.75099669  0.88857918  1
  S  S35  1  0.23616550  0.23616550  0.00000000  1
  S  S36  1  0.23561897  0.90601000  0.00196576  1
  S  S37  1  0.25099669  0.92722976  0.63857918  1
  S  S38  1  0.90601000  0.23561897  0.99803424  1
  S  S39  1  0.56709715  0.43366860  0.89006517  1
  S  S40  1  0.42549876  0.88408163  0.39608114  1
  S  S41  1  0.06709715  0.06633140  0.85993483  1
  S  S42  1  0.09399000  0.76438103  0.49803424  1
  S  S43  1  0.93366860  0.93290285  0.64006517  1
  S  S44  1  0.42722976  0.24900331  0.38857918  1
  S  S45  1  0.07277024  0.74900331  0.86142082  1
  S  S46  1  0.61591837  0.92549876  0.64608114  1
  S  S47  1  0.09763541  0.09763541  0.50000000  1
  S  S48  1  0.40601000  0.26438103  0.75196576  1
  S  S49  1  0.43366860  0.56709715  0.10993483  1
  S  S50  1  0.26438103  0.40601000  0.24803424  1
  S  S51  1  0.76438103  0.09399000  0.50196576  1
  S  S52  1  0.74900331  0.07277024  0.13857918  1
  S  S53  1  0.40236459  0.59763541  0.75000000  1
  S  S54  1  0.38408163  0.07450124  0.14608114  1
  S  S55  1  0.26383450  0.73616550  0.25000000  1
  S  S56  1  0.59763541  0.40236459  0.25000000  1
  S  S57  1  0.59399000  0.73561897  0.25196576  1
  S  S58  1  0.43290285  0.56633140  0.39006517  1
  S  S59  1  0.24900331  0.42722976  0.61142082  1
  S  S60  1  0.90236459  0.90236459  0.00000000  1
  S  S61  1  0.92549876  0.61591837  0.35391886  1
  S  S62  1  0.73616550  0.26383450  0.75000000  1
  S  S63  1  0.06633140  0.06709715  0.14006517  1
  S  S64  1  0.56633140  0.43290285  0.60993483  1
  S  S65  1  0.11591837  0.57450124  0.10391886  1
  S  S66  1  0.76383450  0.76383450  0.50000000  1
  S  S67  1  0.75099669  0.57277024  0.11142082  1
  S  S68  1  0.07450124  0.38408163  0.85391886  1
  S  S69  1  0.57450124  0.11591837  0.89608114  1
  S  S70  1  0.92722976  0.25099669  0.36142082  1
  S  S71  1  0.88408163  0.42549876  0.60391886  1
