# generated using pymatgen
data_P4Se3I2
_symmetry_space_group_name_H-M   'P 1'
_cell_length_a   7.01852292
_cell_length_b   9.92979676
_cell_length_c   16.38734560
_cell_angle_alpha   90.00000000
_cell_angle_beta   90.00000000
_cell_angle_gamma   90.00000000
_symmetry_Int_Tables_number   1
_chemical_formula_structural   P4Se3I2
_chemical_formula_sum   'P16 Se12 I8'
_cell_volume   1142.07518403
_cell_formula_units_Z   4
loop_
 _symmetry_equiv_pos_site_id
 _symmetry_equiv_pos_as_xyz
  1  'x, y, z'
loop_
 _atom_site_type_symbol
 _atom_site_label
 _atom_site_symmetry_multiplicity
 _atom_site_fract_x
 _atom_site_fract_y
 _atom_site_fract_z
 _atom_site_occupancy
  P  P0  1  0.94729239  0.02190323  0.64851515  1
  P  P1  1  0.44729239  0.47809677  0.14851515  1
  P  P2  1  0.55270761  0.52190323  0.85148485  1
  P  P3  1  0.18577499  0.86622848  0.25000000  1
  P  P4  1  0.05270761  0.97809677  0.14851515  1
  P  P5  1  0.74077284  0.74810618  0.25000000  1
  P  P6  1  0.25922716  0.25189382  0.75000000  1
  P  P7  1  0.31422501  0.36622848  0.25000000  1
  P  P8  1  0.44729239  0.47809677  0.35148485  1
  P  P9  1  0.75922716  0.24810518  0.25000000  1
  P  P10  1  0.81422501  0.13377152  0.75000000  1
  P  P11  1  0.05270761  0.97809677  0.35148485  1
  P  P12  1  0.55270761  0.52190323  0.64851515  1
  P  P13  1  0.24077284  0.75189382  0.75000000  1
  P  P14  1  0.94729239  0.02190323  0.85148485  1
  P  P15  1  0.68577499  0.63377152  0.75000000  1
  Se  Se16  1  0.25191468  0.61048120  0.85849256  1
  Se  Se17  1  0.74808532  0.38951880  0.35849256  1
  Se  Se18  1  0.53825203  0.83473951  0.75000000  1
  Se  Se19  1  0.46174797  0.16526049  0.25000000  1
  Se  Se20  1  0.24808532  0.11048120  0.85849256  1
  Se  Se21  1  0.96174797  0.33473951  0.75000000  1
  Se  Se22  1  0.75191468  0.88951880  0.14150744  1
  Se  Se23  1  0.25191468  0.61048120  0.64150744  1
  Se  Se24  1  0.24808532  0.11048120  0.64150744  1
  Se  Se25  1  0.03825203  0.66526049  0.25000000  1
  Se  Se26  1  0.74808532  0.38951880  0.14150744  1
  Se  Se27  1  0.75191468  0.88951880  0.35849256  1
  I  I28  1  0.27976080  0.35310927  0.46144476  1
  I  I29  1  0.77976080  0.14689073  0.53855524  1
  I  I30  1  0.72023920  0.64689073  0.96144476  1
  I  I31  1  0.27976080  0.35310927  0.03855524  1
  I  I32  1  0.22023920  0.85310927  0.03855524  1
  I  I33  1  0.77976080  0.14689073  0.96144476  1
  I  I34  1  0.72023920  0.64689073  0.53855524  1
  I  I35  1  0.22023920  0.85310927  0.46144476  1
