# generated using pymatgen
data_B6As
_symmetry_space_group_name_H-M   'P 1'
_cell_length_a   5.31736163
_cell_length_b   5.31736134
_cell_length_c   5.31736176
_cell_angle_alpha   70.48766733
_cell_angle_beta   70.48767831
_cell_angle_gamma   70.48766479
_symmetry_Int_Tables_number   1
_chemical_formula_structural   B6As
_chemical_formula_sum   'B12 As2'
_cell_volume   129.31741946
_cell_formula_units_Z   2
loop_
 _symmetry_equiv_pos_site_id
 _symmetry_equiv_pos_as_xyz
  1  'x, y, z'
loop_
 _atom_site_type_symbol
 _atom_site_label
 _atom_site_symmetry_multiplicity
 _atom_site_fract_x
 _atom_site_fract_y
 _atom_site_fract_z
 _atom_site_occupancy
  B  B0  1  0.01528972  0.01528972  0.32487848  1
  B  B1  1  0.01528972  0.32487848  0.01528972  1
  B  B2  1  0.82185570  0.27248649  0.82185570  1
  B  B3  1  0.82185570  0.82185570  0.27248649  1
  B  B4  1  0.27248649  0.82185570  0.82185570  1
  B  B5  1  0.72751351  0.17814430  0.17814430  1
  B  B6  1  0.17814430  0.72751351  0.17814430  1
  B  B7  1  0.17814430  0.17814430  0.72751351  1
  B  B8  1  0.98471028  0.67512052  0.98471028  1
  B  B9  1  0.98471028  0.98471028  0.67512052  1
  B  B10  1  0.67512052  0.98471028  0.98471028  1
  B  B11  1  0.32487848  0.01528972  0.01528972  1
  As  As12  1  0.60055235  0.60055235  0.60055235  1
  As  As13  1  0.39944765  0.39944765  0.39944765  1
