# generated using pymatgen
data_AlBiCl6
_symmetry_space_group_name_H-M   'P 1'
_cell_length_a   11.99688665
_cell_length_b   7.80517050
_cell_length_c   10.64967645
_cell_angle_alpha   83.50638358
_cell_angle_beta   90.00000000
_cell_angle_gamma   90.00000000
_symmetry_Int_Tables_number   1
_chemical_formula_structural   AlBiCl6
_chemical_formula_sum   'Al4 Bi4 Cl24'
_cell_volume   990.81404584
_cell_formula_units_Z   4
loop_
 _symmetry_equiv_pos_site_id
 _symmetry_equiv_pos_as_xyz
  1  'x, y, z'
loop_
 _atom_site_type_symbol
 _atom_site_label
 _atom_site_symmetry_multiplicity
 _atom_site_fract_x
 _atom_site_fract_y
 _atom_site_fract_z
 _atom_site_occupancy
  Al  Al0  1  0.77265101  0.49590543  0.71965648  1
  Al  Al1  1  0.72734899  0.49590543  0.21965648  1
  Al  Al2  1  0.27265101  0.50409457  0.78034352  1
  Al  Al3  1  0.22734899  0.50409457  0.28034352  1
  Bi  Bi4  1  0.96286330  0.19540293  0.35383129  1
  Bi  Bi5  1  0.53713670  0.19540293  0.85383129  1
  Bi  Bi6  1  0.03713670  0.80459707  0.64616871  1
  Bi  Bi7  1  0.46286330  0.80459707  0.14616871  1
  Cl  Cl8  1  0.43204161  0.00311086  0.30275900  1
  Cl  Cl9  1  0.90159703  0.52627103  0.17933895  1
  Cl  Cl10  1  0.65841725  0.70254746  0.31323191  1
  Cl  Cl11  1  0.13088062  0.50200029  0.44958521  1
  Cl  Cl12  1  0.86911938  0.49799971  0.55041479  1
  Cl  Cl13  1  0.06795839  0.00311086  0.80275900  1
  Cl  Cl14  1  0.36911938  0.50200029  0.94958521  1
  Cl  Cl15  1  0.09840297  0.47372897  0.82066105  1
  Cl  Cl16  1  0.15841725  0.29745254  0.18676809  1
  Cl  Cl17  1  0.40159703  0.47372897  0.32066105  1
  Cl  Cl18  1  0.59840297  0.52627103  0.67933895  1
  Cl  Cl19  1  0.63088062  0.49799971  0.05041479  1
  Cl  Cl20  1  0.63547475  0.98758986  0.04134153  1
  Cl  Cl21  1  0.71555518  0.25243513  0.33528216  1
  Cl  Cl22  1  0.21555518  0.74756487  0.16471784  1
  Cl  Cl23  1  0.36452525  0.01241014  0.95865847  1
  Cl  Cl24  1  0.28444482  0.74756487  0.66471784  1
  Cl  Cl25  1  0.93204161  0.99688914  0.19724100  1
  Cl  Cl26  1  0.34158275  0.29745254  0.68676809  1
  Cl  Cl27  1  0.78444482  0.25243513  0.83528216  1
  Cl  Cl28  1  0.13547475  0.01241014  0.45865847  1
  Cl  Cl29  1  0.84158275  0.70254746  0.81323191  1
  Cl  Cl30  1  0.56795839  0.99688914  0.69724100  1
  Cl  Cl31  1  0.86452525  0.98758986  0.54134153  1
