# generated using pymatgen
data_Cs4Mg3H10
_symmetry_space_group_name_H-M   'P 1'
_cell_length_a   7.99865353
_cell_length_b   7.99865353
_cell_length_c   13.69286008
_cell_angle_alpha   90.00000000
_cell_angle_beta   90.00000000
_cell_angle_gamma   134.09733397
_symmetry_Int_Tables_number   1
_chemical_formula_structural   Cs4Mg3H10
_chemical_formula_sum   'Cs8 Mg6 H20'
_cell_volume   629.14153042
_cell_formula_units_Z   2
loop_
 _symmetry_equiv_pos_site_id
 _symmetry_equiv_pos_as_xyz
  1  'x, y, z'
loop_
 _atom_site_type_symbol
 _atom_site_label
 _atom_site_symmetry_multiplicity
 _atom_site_fract_x
 _atom_site_fract_y
 _atom_site_fract_z
 _atom_site_occupancy
  Cs  Cs0  1  0.75429633  0.24570367  0.89410171  1
  Cs  Cs1  1  0.24570367  0.75429633  0.10589829  1
  Cs  Cs2  1  0.74570367  0.25429633  0.39410171  1
  Cs  Cs3  1  0.25429633  0.74570367  0.60589829  1
  Cs  Cs4  1  0.95369843  0.04630157  0.63931338  1
  Cs  Cs5  1  0.04630157  0.95369843  0.36068662  1
  Cs  Cs6  1  0.54630157  0.45369843  0.13931338  1
  Cs  Cs7  1  0.45369843  0.54630157  0.86068662  1
  Mg  Mg8  1  0.61763511  0.38236489  0.65593886  1
  Mg  Mg9  1  0.38236489  0.61763511  0.34406114  1
  Mg  Mg10  1  0.88236489  0.11763511  0.15593886  1
  Mg  Mg11  1  0.11763511  0.88236489  0.84406114  1
  Mg  Mg12  1  0.50000000  0.50000000  0.50000000  1
  Mg  Mg13  1  0.00000000  -0.00000000  -0.00000000  1
  H  H14  1  0.38912644  0.19974641  0.53952927  1
  H  H15  1  0.19974641  0.38912644  0.46047073  1
  H  H16  1  0.69974641  0.88912644  0.03952927  1
  H  H17  1  0.88912644  0.69974641  0.96047073  1
  H  H18  1  0.61087356  0.80025359  0.46047073  1
  H  H19  1  0.80025359  0.61087356  0.53952927  1
  H  H20  1  0.30025359  0.11087356  0.96047073  1
  H  H21  1  0.11087356  0.30025359  0.03952927  1
  H  H22  1  0.74549230  0.25450770  0.64688644  1
  H  H23  1  0.25450770  0.74549230  0.35311356  1
  H  H24  1  0.75450770  0.24549230  0.14688644  1
  H  H25  1  0.24549230  0.75450770  0.85311356  1
  H  H26  1  0.97687429  0.02312571  0.85834602  1
  H  H27  1  0.02312571  0.97687429  0.14165398  1
  H  H28  1  0.52312571  0.47687429  0.35834602  1
  H  H29  1  0.47687429  0.52312571  0.64165398  1
  H  H30  1  0.35886058  0.14113942  0.75000000  1
  H  H31  1  0.14113942  0.35886058  0.25000000  1
  H  H32  1  0.64113942  0.85886058  0.25000000  1
  H  H33  1  0.85886058  0.64113942  0.75000000  1
