# generated using pymatgen
data_Na17Zr12Si11P7O72
_symmetry_space_group_name_H-M   'P 1'
_cell_length_a   9.19477700
_cell_length_b   9.34759728
_cell_length_c   22.71096470
_cell_angle_alpha   90.97714269
_cell_angle_beta   90.12640370
_cell_angle_gamma   119.28443223
_symmetry_Int_Tables_number   1
_chemical_formula_structural   Na17Zr12Si11P7O72
_chemical_formula_sum   'Na17 Zr12 Si11 P7 O72'
_cell_volume   1702.15470438
_cell_formula_units_Z   1
loop_
 _symmetry_equiv_pos_site_id
 _symmetry_equiv_pos_as_xyz
  1  'x, y, z'
loop_
 _atom_site_type_symbol
 _atom_site_label
 _atom_site_symmetry_multiplicity
 _atom_site_fract_x
 _atom_site_fract_y
 _atom_site_fract_z
 _atom_site_occupancy
  Na  Na0  1  0.68778500  0.21054900  0.77553600  1
  Na  Na1  1  0.24833000  0.12163000  0.87741400  1
  Na  Na2  1  0.10558300  0.56807100  0.79428700  1
  Na  Na3  1  0.54607600  0.47916100  0.70602400  1
  Na  Na4  1  0.70582900  0.66095100  0.91686200  1
  Na  Na5  1  0.58330100  0.79404500  0.53752900  1
  Na  Na6  1  0.01927300  0.97341700  0.48676500  1
  Na  Na7  1  0.44022400  0.23898300  0.45579100  1
  Na  Na8  1  0.88041700  0.13165500  0.36898600  1
  Na  Na9  1  0.97933900  0.25082900  0.58596800  1
  Na  Na10  1  0.26975500  0.66821600  0.65119300  1
  Na  Na11  1  0.91914800  0.46807000  0.20360000  1
  Na  Na12  1  0.34798600  0.63763000  0.15514600  1
  Na  Na13  1  0.78770100  0.92132100  0.11433500  1
  Na  Na14  1  0.22071000  0.83619800  0.03172800  1
  Na  Na15  1  0.30673100  0.91780100  0.25360900  1
  Na  Na16  1  0.59431900  0.33851900  0.31818100  1
  Zr  Zr17  1  0.18100800  0.37365200  0.95596800  1
  Zr  Zr18  1  0.47843600  0.95148400  0.88305700  1
  Zr  Zr19  1  0.52256200  0.04918300  0.62154300  1
  Zr  Zr20  1  0.81568000  0.61845300  0.54682400  1
  Zr  Zr21  1  0.86582700  0.72828200  0.78136500  1
  Zr  Zr22  1  0.85413200  0.71538500  0.28994500  1
  Zr  Zr23  1  0.12662300  0.26128800  0.71687100  1
  Zr  Zr24  1  0.14919300  0.28317000  0.21572400  1
  Zr  Zr25  1  0.19825600  0.40075300  0.44959400  1
  Zr  Zr26  1  0.46319600  0.93007100  0.38164700  1
  Zr  Zr27  1  0.53436500  0.07266300  0.11801100  1
  Zr  Zr28  1  0.79727100  0.59655200  0.05009000  1
  Si  Si29  1  0.90304300  0.09779600  0.84396100  1
  Si  Si30  1  0.28610400  0.98939600  0.75018700  1
  Si  Si31  1  0.47275900  0.23614600  0.98733700  1
  Si  Si32  1  0.86534900  0.43262400  0.67859400  1
  Si  Si33  1  0.23422400  0.76732100  0.51139700  1
  Si  Si34  1  0.62511800  0.66238400  0.41533600  1
  Si  Si35  1  0.80115200  0.89434500  0.65089100  1
  Si  Si36  1  0.19553600  0.09990400  0.34778100  1
  Si  Si37  1  0.56889000  0.43913000  0.17855000  1
  Si  Si38  1  0.95649700  0.33076100  0.08512300  1
  Si  Si39  1  0.13284000  0.56191400  0.31857900  1
  P  P40  1  0.04621100  0.66969600  0.91574100  1
  P  P41  1  0.42434100  0.56333400  0.82315200  1
  P  P42  1  0.37856000  0.33883900  0.58283500  1
  P  P43  1  0.75966500  0.22929900  0.48652500  1
  P  P44  1  0.51816100  0.75745400  0.01399000  1
  P  P45  1  0.70875700  0.00069200  0.24803100  1
  P  P46  1  0.09482200  0.89393700  0.15458600  1
  O  O47  1  0.42011600  0.72478500  0.83475900  1
  O  O48  1  0.53773400  0.86419700  0.96030100  1
  O  O49  1  0.03289700  0.19016000  0.89788200  1
  O  O50  1  0.21197800  0.83287500  0.90830700  1
  O  O51  1  0.71668800  0.07036700  0.85559000  1
  O  O52  1  0.96621000  0.21087200  0.78429000  1
  O  O53  1  0.37132900  0.95767400  0.69193300  1
  O  O54  1  0.40933800  0.03326600  0.80786100  1
  O  O55  1  0.49301600  0.14542500  0.92835300  1
  O  O56  1  0.70809600  0.24595000  0.66805400  1
  O  O57  1  0.04277000  0.42872900  0.68517400  1
  O  O58  1  0.08293900  0.52675500  0.91952900  1
  O  O59  1  0.25632000  0.14777700  0.74214100  1
  O  O60  1  0.76866100  0.39668400  0.49823900  1
  O  O61  1  0.30693100  0.25337800  0.97676300  1
  O  O62  1  0.63779100  0.41634100  0.99612200  1
  O  O63  1  0.82188700  0.49714400  0.74078900  1
  O  O64  1  0.88048500  0.54326600  0.62184400  1
  O  O65  1  0.92585500  0.63618600  0.86243600  1
  O  O66  1  0.35439400  0.84448800  0.56972600  1
  O  O67  1  0.96294000  0.69210600  0.97263100  1
  O  O68  1  0.54228600  0.49628500  0.56743800  1
  O  O69  1  0.05418500  0.75765600  0.51924700  1
  O  O70  1  0.32498700  0.88186500  0.45469800  1
  O  O71  1  0.36005300  0.45279800  0.87715400  1
  O  O72  1  0.60404900  0.59470000  0.81011000  1
  O  O73  1  0.11115300  0.81972300  0.76093700  1
  O  O74  1  0.69273900  0.60720500  0.35774000  1
  O  O75  1  0.31570200  0.48244800  0.76624000  1
  O  O76  1  0.74917400  0.71211600  0.47271100  1
  O  O77  1  0.77634900  0.77464300  0.70603000  1
  O  O78  1  0.83133200  0.82400000  0.58812300  1
  O  O79  1  0.03465200  0.91961400  0.33303400  1
  O  O80  1  0.37247000  0.09497200  0.35426500  1
  O  O81  1  0.89731000  0.92189700  0.83226900  1
  O  O82  1  0.41637900  0.19659000  0.59183800  1
  O  O83  1  0.60500000  0.82480600  0.40280700  1
  O  O84  1  0.11001400  0.06278700  0.16822100  1
  O  O85  1  0.63082100  0.90616600  0.64003300  1
  O  O86  1  0.96271100  0.07784900  0.66282600  1
  O  O87  1  0.15751600  0.16738200  0.41067600  1
  O  O88  1  0.21907000  0.21852000  0.29244000  1
  O  O89  1  0.24613600  0.28680000  0.53177500  1
  O  O90  1  0.68851800  0.51370900  0.23677800  1
  O  O91  1  0.30654600  0.37556600  0.63988800  1
  O  O92  1  0.87542000  0.15593600  0.23404900  1
  O  O93  1  0.38657200  0.42241100  0.18752500  1
  O  O94  1  0.65389600  0.55461900  0.12179500  1
  O  O95  1  0.68346400  0.11745400  0.54038800  1
  O  O96  1  0.93454200  0.24262500  0.47780900  1
  O  O97  1  0.44418800  0.50198600  0.43186600  1
  O  O98  1  0.03012200  0.29901700  0.02479000  1
  O  O99  1  0.65542100  0.15595300  0.42916800  1
  O  O100  1  0.08000900  0.37391700  0.14212200  1
  O  O101  1  0.10896300  0.44424500  0.37472400  1
  O  O102  1  0.16247700  0.48930600  0.25646400  1
  O  O103  1  0.36101200  0.59012800  0.00479900  1
  O  O104  1  0.68065000  0.74542100  0.02008900  1
  O  O105  1  0.21264500  0.58375900  0.50172900  1
  O  O106  1  0.74124300  0.85638200  0.25925400  1
  O  O107  1  0.92439300  0.48846600  0.07996100  1
  O  O108  1  0.96322000  0.57383900  0.30772600  1
  O  O109  1  0.29410800  0.74603700  0.32975500  1
  O  O110  1  0.49474000  0.83561800  0.07254100  1
  O  O111  1  0.58011100  0.94952300  0.19555400  1
  O  O112  1  0.63259500  0.04091000  0.30320800  1
  O  O113  1  0.01951600  0.78084900  0.20801000  1
  O  O114  1  0.26966700  0.90594600  0.14449200  1
  O  O115  1  0.77743700  0.16478700  0.09869800  1
  O  O116  1  0.98906900  0.82477300  0.09706800  1
  O  O117  1  0.44421300  0.11803600  0.04418800  1
  O  O118  1  0.55280200  0.25688200  0.16813700  1
