# generated using pymatgen
data_Cs4Fe3F10
_symmetry_space_group_name_H-M   'P 1'
_cell_length_a   7.82640721
_cell_length_b   7.82640721
_cell_length_c   13.93718469
_cell_angle_alpha   90.00000000
_cell_angle_beta   90.00000000
_cell_angle_gamma   132.70697733
_symmetry_Int_Tables_number   1
_chemical_formula_structural   Cs4Fe3F10
_chemical_formula_sum   'Cs8 Fe6 F20'
_cell_volume   627.31836250
_cell_formula_units_Z   2
loop_
 _symmetry_equiv_pos_site_id
 _symmetry_equiv_pos_as_xyz
  1  'x, y, z'
loop_
 _atom_site_type_symbol
 _atom_site_label
 _atom_site_symmetry_multiplicity
 _atom_site_fract_x
 _atom_site_fract_y
 _atom_site_fract_z
 _atom_site_occupancy
  Cs  Cs0  1  0.25552227  0.74447773  0.39124483  1
  Cs  Cs1  1  0.24447773  0.75552227  0.89124483  1
  Cs  Cs2  1  0.53877788  0.46122212  0.86128152  1
  Cs  Cs3  1  0.74447773  0.25552227  0.60875517  1
  Cs  Cs4  1  0.03877788  0.96122212  0.63871848  1
  Cs  Cs5  1  0.96122212  0.03877788  0.36128152  1
  Cs  Cs6  1  0.75552227  0.24447773  0.10875517  1
  Cs  Cs7  1  0.46122212  0.53877788  0.13871848  1
  Fe  Fe8  1  0.37659953  0.62340047  0.65172983  1
  Fe  Fe9  1  0.62340047  0.37659953  0.34827017  1
  Fe  Fe10  1  0.12340047  0.87659953  0.15172983  1
  Fe  Fe11  1  0.50000000  0.50000000  0.50000000  1
  Fe  Fe12  1  0.87659953  0.12340047  0.84827017  1
  Fe  Fe13  1  -0.00000000  -0.00000000  0.00000000  1
  F  F14  1  0.75738371  0.24261629  0.35568671  1
  F  F15  1  0.97731381  0.02268619  0.14391568  1
  F  F16  1  0.11580923  0.31312552  0.96807450  1
  F  F17  1  0.18687448  0.38419077  0.53192550  1
  F  F18  1  0.24261629  0.75738371  0.64431329  1
  F  F19  1  0.81312552  0.61580923  0.46807450  1
  F  F20  1  0.74261629  0.25738371  0.85568671  1
  F  F21  1  0.88419077  0.68687448  0.03192550  1
  F  F22  1  0.31312552  0.11580923  0.03192550  1
  F  F23  1  0.86676942  0.63323058  0.25000000  1
  F  F24  1  0.63323058  0.86676942  0.75000000  1
  F  F25  1  0.02268619  0.97731381  0.85608432  1
  F  F26  1  0.68687448  0.88419077  0.96807450  1
  F  F27  1  0.38419077  0.18687448  0.46807450  1
  F  F28  1  0.61580923  0.81312552  0.53192550  1
  F  F29  1  0.47731381  0.52268619  0.35608432  1
  F  F30  1  0.25738371  0.74261629  0.14431329  1
  F  F31  1  0.52268619  0.47731381  0.64391568  1
  F  F32  1  0.13323058  0.36676942  0.75000000  1
  F  F33  1  0.36676942  0.13323058  0.25000000  1
