# generated using pymatgen
data_K2SiAs2
_symmetry_space_group_name_H-M   'P 1'
_cell_length_a   6.36017247
_cell_length_b   7.00889120
_cell_length_c   8.17015744
_cell_angle_alpha   115.39982971
_cell_angle_beta   112.90671295
_cell_angle_gamma   90.00000476
_symmetry_Int_Tables_number   1
_chemical_formula_structural   K2SiAs2
_chemical_formula_sum   'K4 Si2 As4'
_cell_volume   296.89383948
_cell_formula_units_Z   2
loop_
 _symmetry_equiv_pos_site_id
 _symmetry_equiv_pos_as_xyz
  1  'x, y, z'
loop_
 _atom_site_type_symbol
 _atom_site_label
 _atom_site_symmetry_multiplicity
 _atom_site_fract_x
 _atom_site_fract_y
 _atom_site_fract_z
 _atom_site_occupancy
  K  K0  1  0.85662840  0.02105304  0.71325681  1
  K  K1  1  0.35662840  0.69220376  0.71325681  1
  K  K2  1  0.64337160  0.30779624  0.28674319  1
  K  K3  1  0.14337160  0.97894696  0.28674319  1
  Si  Si4  1  0.25000000  0.50000000  -0.00000000  1
  Si  Si5  1  0.75000000  0.50000000  -0.00000000  1
  As  As6  1  0.60035739  0.76670199  0.20071578  1
  As  As7  1  0.10035739  0.43401379  0.20071578  1
  As  As8  1  0.89964261  0.56598621  0.79928422  1
  As  As9  1  0.39964261  0.23329801  0.79928422  1
