# generated using pymatgen
data_Cs2NiF6
_symmetry_space_group_name_H-M   'P 1'
_cell_length_a   6.26453223
_cell_length_b   6.26451532
_cell_length_c   6.26455283
_cell_angle_alpha   60.00151267
_cell_angle_beta   60.00178077
_cell_angle_gamma   60.00059272
_symmetry_Int_Tables_number   1
_chemical_formula_structural   Cs2NiF6
_chemical_formula_sum   'Cs2 Ni1 F6'
_cell_volume   173.84570122
_cell_formula_units_Z   1
loop_
 _symmetry_equiv_pos_site_id
 _symmetry_equiv_pos_as_xyz
  1  'x, y, z'
loop_
 _atom_site_type_symbol
 _atom_site_label
 _atom_site_symmetry_multiplicity
 _atom_site_fract_x
 _atom_site_fract_y
 _atom_site_fract_z
 _atom_site_occupancy
  Cs  Cs0  1  0.75001706  0.75001438  0.75001007  1
  Cs  Cs1  1  0.24998260  0.24997267  0.24999712  1
  Ni  Ni2  1  0.00005824  0.00003892  -0.00005701  1
  F  F3  1  0.20178068  0.79814445  0.79815983  1
  F  F4  1  0.20184475  0.79819882  0.20186278  1
  F  F5  1  0.79814141  0.20177999  0.79816849  1
  F  F6  1  0.79819719  0.20184739  0.20185506  1
  F  F7  1  0.79814741  0.79814810  0.20178914  1
  F  F8  1  0.20183266  0.20185426  0.79821552  1
