# generated using pymatgen
data_C
_symmetry_space_group_name_H-M   'P 1'
_cell_length_a   10.08012649
_cell_length_b   10.08012548
_cell_length_c   10.08012705
_cell_angle_alpha   60.00000095
_cell_angle_beta   60.00000425
_cell_angle_gamma   59.99999953
_symmetry_Int_Tables_number   1
_chemical_formula_structural   C
_chemical_formula_sum   C60
_cell_volume   724.24072765
_cell_formula_units_Z   60
loop_
 _symmetry_equiv_pos_site_id
 _symmetry_equiv_pos_as_xyz
  1  'x, y, z'
loop_
 _atom_site_type_symbol
 _atom_site_label
 _atom_site_symmetry_multiplicity
 _atom_site_fract_x
 _atom_site_fract_y
 _atom_site_fract_z
 _atom_site_occupancy
  C  C0  1  0.70884509  0.39238127  0.92881515  1
  C  C1  1  0.03004251  0.07118485  0.60761873  1
  C  C2  1  0.77107373  0.80589090  0.39276179  1
  C  C3  1  0.39238127  0.92881515  0.70884509  1
  C  C4  1  0.03004251  0.29115491  0.07118485  1
  C  C5  1  0.60723821  0.96972642  0.22892627  1
  C  C6  1  0.92881515  0.70884509  0.39238127  1
  C  C7  1  0.60723821  0.22892627  0.19410910  1
  C  C8  1  0.70815225  0.29184775  0.19429796  1
  C  C9  1  0.60723821  0.19410910  0.96972642  1
  C  C10  1  0.03004251  0.60761873  0.29115491  1
  C  C11  1  0.39276179  0.80589090  0.03027358  1
  C  C12  1  0.70815225  0.80570204  0.29184775  1
  C  C13  1  0.07118485  0.60761873  0.03004251  1
  C  C14  1  0.70884509  0.92881515  0.96995749  1
  C  C15  1  0.07118485  0.29115491  0.60761873  1
  C  C16  1  0.22892627  0.60723821  0.96972642  1
  C  C17  1  0.39238127  0.96995749  0.92881515  1
  C  C18  1  0.60761873  0.03004251  0.07118485  1
  C  C19  1  0.60761873  0.29115491  0.03004251  1
  C  C20  1  0.77107373  0.03027358  0.80589090  1
  C  C21  1  0.29115491  0.03004251  0.60761873  1
  C  C22  1  0.29184775  0.19429796  0.70815225  1
  C  C23  1  0.96972642  0.22892627  0.60723821  1
  C  C24  1  0.39276179  0.03027358  0.77107373  1
  C  C25  1  0.96995749  0.39238127  0.70884509  1
  C  C26  1  0.96995749  0.92881515  0.39238127  1
  C  C27  1  0.29184775  0.70815225  0.80570204  1
  C  C28  1  0.39276179  0.77107373  0.80589090  1
  C  C29  1  0.29115491  0.07118485  0.03004251  1
  C  C30  1  0.03027358  0.80589090  0.77107373  1
  C  C31  1  0.03027358  0.39276179  0.80589090  1
  C  C32  1  0.19410910  0.96972642  0.60723821  1
  C  C33  1  0.19429796  0.80570204  0.70815225  1
  C  C34  1  0.19410910  0.22892627  0.96972642  1
  C  C35  1  0.29115491  0.60761873  0.07118485  1
  C  C36  1  0.70815225  0.19429796  0.80570204  1
  C  C37  1  0.77107373  0.39276179  0.03027358  1
  C  C38  1  0.96972642  0.19410910  0.22892627  1
  C  C39  1  0.80589090  0.39276179  0.77107373  1
  C  C40  1  0.92881515  0.96995749  0.70884509  1
  C  C41  1  0.80589090  0.03027358  0.39276179  1
  C  C42  1  0.80570204  0.19429796  0.29184775  1
  C  C43  1  0.96972642  0.60723821  0.19410910  1
  C  C44  1  0.19429796  0.29184775  0.80570204  1
  C  C45  1  0.19410910  0.60723821  0.22892627  1
  C  C46  1  0.70884509  0.96995749  0.39238127  1
  C  C47  1  0.92881515  0.39238127  0.96995749  1
  C  C48  1  0.22892627  0.96972642  0.19410910  1
  C  C49  1  0.80570204  0.70815225  0.19429796  1
  C  C50  1  0.19429796  0.70815225  0.29184775  1
  C  C51  1  0.07118485  0.03004251  0.29115491  1
  C  C52  1  0.60761873  0.07118485  0.29115491  1
  C  C53  1  0.80589090  0.77107373  0.03027358  1
  C  C54  1  0.03027358  0.77107373  0.39276179  1
  C  C55  1  0.96995749  0.70884509  0.92881515  1
  C  C56  1  0.22892627  0.19410910  0.60723821  1
  C  C57  1  0.29184775  0.80570204  0.19429796  1
  C  C58  1  0.39238127  0.70884509  0.96995749  1
  C  C59  1  0.80570204  0.29184775  0.70815225  1
