# generated using pymatgen
data_NaMoAsO6
_symmetry_space_group_name_H-M   'P 1'
_cell_length_a   6.56412704
_cell_length_b   10.08975698
_cell_length_c   14.93574699
_cell_angle_alpha   90.00000000
_cell_angle_beta   90.00000000
_cell_angle_gamma   90.00000000
_symmetry_Int_Tables_number   1
_chemical_formula_structural   NaMoAsO6
_chemical_formula_sum   'Na8 Mo8 As8 O48'
_cell_volume   989.20119374
_cell_formula_units_Z   8
loop_
 _symmetry_equiv_pos_site_id
 _symmetry_equiv_pos_as_xyz
  1  'x, y, z'
loop_
 _atom_site_type_symbol
 _atom_site_label
 _atom_site_symmetry_multiplicity
 _atom_site_fract_x
 _atom_site_fract_y
 _atom_site_fract_z
 _atom_site_occupancy
  Na  Na0  1  0.76400755  0.30734487  0.56088551  1
  Na  Na1  1  0.23599245  0.80734487  0.43911449  1
  Na  Na2  1  0.76400755  0.80734487  0.93911449  1
  Na  Na3  1  0.27334187  0.33621671  0.68757496  1
  Na  Na4  1  0.72665813  0.33621671  0.18757496  1
  Na  Na5  1  0.72665813  0.83621671  0.31242504  1
  Na  Na6  1  0.27334187  0.83621671  0.81242504  1
  Na  Na7  1  0.23599245  0.30734487  0.06088551  1
  Mo  Mo8  1  0.01404334  0.50402294  0.85039049  1
  Mo  Mo9  1  0.48967408  0.14382670  0.40028529  1
  Mo  Mo10  1  0.98595666  0.50402294  0.35039049  1
  Mo  Mo11  1  0.98595666  0.00402294  0.14960951  1
  Mo  Mo12  1  0.51032592  0.64382670  0.59971471  1
  Mo  Mo13  1  0.51032592  0.14382670  0.90028529  1
  Mo  Mo14  1  0.01404334  0.00402294  0.64960951  1
  Mo  Mo15  1  0.48967408  0.64382670  0.09971471  1
  As  As16  1  0.49225145  0.98389241  0.10542642  1
  As  As17  1  0.01407812  0.16312253  0.85555793  1
  As  As18  1  0.49225145  0.48389241  0.39457358  1
  As  As19  1  0.98592188  0.16312253  0.35555793  1
  As  As20  1  0.01407812  0.66312253  0.64444207  1
  As  As21  1  0.98592188  0.66312253  0.14444207  1
  As  As22  1  0.50774855  0.48389241  0.89457358  1
  As  As23  1  0.50774855  0.98389241  0.60542642  1
  O  O24  1  0.68696918  0.99108302  0.18115641  1
  O  O25  1  0.97601151  0.30213936  0.29449624  1
  O  O26  1  0.50261601  0.34541329  0.45616241  1
  O  O27  1  0.20904845  0.15339222  0.93093400  1
  O  O28  1  0.20904845  0.65339222  0.56906600  1
  O  O29  1  0.49738399  0.34541329  0.95616241  1
  O  O30  1  0.01774841  0.67078489  0.87212274  1
  O  O31  1  0.49839350  0.62475396  0.45544992  1
  O  O32  1  0.51949102  0.71103563  0.20363375  1
  O  O33  1  0.01774841  0.17078489  0.62787726  1
  O  O34  1  0.80075866  0.66544995  0.57887857  1
  O  O35  1  0.80075866  0.16544995  0.92112143  1
  O  O36  1  0.51949102  0.21103563  0.29636625  1
  O  O37  1  0.49839350  0.12475396  0.04455008  1
  O  O38  1  0.72210365  0.98585056  0.67013753  1
  O  O39  1  0.19924134  0.16544995  0.42112143  1
  O  O40  1  0.02398849  0.80213936  0.70550376  1
  O  O41  1  0.79095155  0.65339222  0.06906600  1
  O  O42  1  0.96077993  0.93622741  0.04555030  1
  O  O43  1  0.02398849  0.30213936  0.79449624  1
  O  O44  1  0.68696918  0.49108302  0.31884359  1
  O  O45  1  0.19924134  0.66544995  0.07887857  1
  O  O46  1  0.48050898  0.71103563  0.70363375  1
  O  O47  1  0.50261601  0.84541329  0.04383759  1
  O  O48  1  0.96077993  0.43622741  0.45444970  1
  O  O49  1  0.27789635  0.98585056  0.17013753  1
  O  O50  1  0.01660243  0.02304483  0.79401102  1
  O  O51  1  0.01660243  0.52304483  0.70598898  1
  O  O52  1  0.98339757  0.02304483  0.29401102  1
  O  O53  1  0.48050898  0.21103563  0.79636625  1
  O  O54  1  0.98339757  0.52304483  0.20598898  1
  O  O55  1  0.72210365  0.48585056  0.82986247  1
  O  O56  1  0.49738399  0.84541329  0.54383759  1
  O  O57  1  0.79095155  0.15339222  0.43093400  1
  O  O58  1  0.03922007  0.93622741  0.54555030  1
  O  O59  1  0.98225159  0.17078489  0.12787726  1
  O  O60  1  0.27789635  0.48585056  0.32986247  1
  O  O61  1  0.50160650  0.12475396  0.54455008  1
  O  O62  1  0.51763358  0.97699772  0.87854284  1
  O  O63  1  0.51763358  0.47699772  0.62145716  1
  O  O64  1  0.03922007  0.43622741  0.95444970  1
  O  O65  1  0.31303082  0.99108302  0.68115641  1
  O  O66  1  0.50160650  0.62475396  0.95544992  1
  O  O67  1  0.98225159  0.67078489  0.37212274  1
  O  O68  1  0.31303082  0.49108302  0.81884359  1
  O  O69  1  0.48236642  0.47699772  0.12145716  1
  O  O70  1  0.97601151  0.80213936  0.20550376  1
  O  O71  1  0.48236642  0.97699772  0.37854284  1
