# generated using pymatgen
data_CaAlH5
_symmetry_space_group_name_H-M   'P 1'
_cell_length_a   12.12392306
_cell_length_b   4.94678399
_cell_length_c   4.36051088
_cell_angle_alpha   90.00000000
_cell_angle_beta   90.00000000
_cell_angle_gamma   90.00000000
_symmetry_Int_Tables_number   1
_chemical_formula_structural   CaAlH5
_chemical_formula_sum   'Ca4 Al4 H20'
_cell_volume   261.51914795
_cell_formula_units_Z   4
loop_
 _symmetry_equiv_pos_site_id
 _symmetry_equiv_pos_as_xyz
  1  'x, y, z'
loop_
 _atom_site_type_symbol
 _atom_site_label
 _atom_site_symmetry_multiplicity
 _atom_site_fract_x
 _atom_site_fract_y
 _atom_site_fract_z
 _atom_site_occupancy
  Ca  Ca0  1  0.91017647  0.10979953  0.03321094  1
  Ca  Ca1  1  0.58982353  0.89020047  0.53321094  1
  Ca  Ca2  1  0.41017647  0.39020047  0.96678906  1
  Ca  Ca3  1  0.08982353  0.60979953  0.46678906  1
  Al  Al4  1  0.83640000  0.62495946  0.43649440  1
  Al  Al5  1  0.66360000  0.37504054  0.93649440  1
  Al  Al6  1  0.33640000  0.87504054  0.56350560  1
  Al  Al7  1  0.16360000  0.12495946  0.06350560  1
  H  H8  1  0.76320820  0.87358940  0.27377131  1
  H  H9  1  0.73679180  0.12641060  0.77377131  1
  H  H10  1  0.26320820  0.62641060  0.72622869  1
  H  H11  1  0.23679180  0.37358940  0.22622869  1
  H  H12  1  0.92422491  0.84781162  0.60333198  1
  H  H13  1  0.57577509  0.15218838  0.10333198  1
  H  H14  1  0.42422491  0.65218838  0.39666802  1
  H  H15  1  0.07577509  0.34781162  0.89666802  1
  H  H16  1  0.58983223  0.64038890  0.07137701  1
  H  H17  1  0.91016777  0.35961110  0.57137701  1
  H  H18  1  0.08983223  0.85961110  0.92862299  1
  H  H19  1  0.41016777  0.14038890  0.42862299  1
  H  H20  1  0.92920793  0.62464033  0.13709112  1
  H  H21  1  0.57079207  0.37535967  0.63709112  1
  H  H22  1  0.42920793  0.87535967  0.86290888  1
  H  H23  1  0.07079207  0.12464033  0.36290888  1
  H  H24  1  0.73952992  0.62143259  0.72857814  1
  H  H25  1  0.76047008  0.37856741  0.22857814  1
  H  H26  1  0.23952992  0.87856741  0.27142186  1
  H  H27  1  0.26047008  0.12143259  0.77142186  1
