# generated using pymatgen
data_Na2Al2S3(Cl4O3)2
_symmetry_space_group_name_H-M   'P 1'
_cell_length_a   10.16800900
_cell_length_b   6.44801700
_cell_length_c   31.94693253
_cell_angle_alpha   86.38052824
_cell_angle_beta   90.00000000
_cell_angle_gamma   90.00000000
_symmetry_Int_Tables_number   1
_chemical_formula_structural   Na2Al2S3(Cl4O3)2
_chemical_formula_sum   'Na8 Al8 S12 Cl32 O24'
_cell_volume   2090.37461029
_cell_formula_units_Z   4
loop_
 _symmetry_equiv_pos_site_id
 _symmetry_equiv_pos_as_xyz
  1  'x, y, z'
loop_
 _atom_site_type_symbol
 _atom_site_label
 _atom_site_symmetry_multiplicity
 _atom_site_fract_x
 _atom_site_fract_y
 _atom_site_fract_z
 _atom_site_occupancy
  Na  Na0  1  0.84002500  0.79526100  0.05897500  1
  Na  Na1  1  0.65997500  0.29526100  0.55897500  1
  Na  Na2  1  0.48825900  0.88039700  0.79778500  1
  Na  Na3  1  0.51174100  0.11960300  0.20221500  1
  Na  Na4  1  0.98825900  0.61960300  0.70221500  1
  Na  Na5  1  0.01174100  0.38039700  0.29778500  1
  Na  Na6  1  0.34002500  0.70473900  0.44102500  1
  Na  Na7  1  0.15997500  0.20473900  0.94102500  1
  Al  Al8  1  0.71179600  0.10423300  0.69740900  1
  Al  Al9  1  0.78820400  0.60423300  0.19740900  1
  Al  Al10  1  0.27120000  0.14904200  0.53588600  1
  Al  Al11  1  0.21179600  0.39576700  0.80259100  1
  Al  Al12  1  0.72880000  0.85095800  0.46411400  1
  Al  Al13  1  0.28820400  0.89576700  0.30259100  1
  Al  Al14  1  0.77120000  0.35095800  0.96411400  1
  Al  Al15  1  0.22880000  0.64904200  0.03588600  1
  S  S16  1  0.47361200  0.90750500  0.91725100  1
  S  S17  1  0.46253700  0.60185100  0.63379000  1
  S  S18  1  0.67783400  0.37863100  0.81505000  1
  S  S19  1  0.03746300  0.10185100  0.13379000  1
  S  S20  1  0.52638800  0.09249500  0.08274900  1
  S  S21  1  0.97361200  0.59249500  0.58274900  1
  S  S22  1  0.02638800  0.40750500  0.41725100  1
  S  S23  1  0.53746300  0.39814900  0.36621000  1
  S  S24  1  0.82216600  0.87863100  0.31505000  1
  S  S25  1  0.32216600  0.62136900  0.18495000  1
  S  S26  1  0.96253700  0.89814900  0.86621000  1
  S  S27  1  0.17783400  0.12136900  0.68495000  1
  Cl  Cl28  1  0.77014300  0.02779900  0.63529900  1
  Cl  Cl29  1  0.50933300  0.01096400  0.70868600  1
  Cl  Cl30  1  0.27496600  0.56354000  0.29536800  1
  Cl  Cl31  1  0.12175500  0.12253000  0.58410000  1
  Cl  Cl32  1  0.37824500  0.62253000  0.08410000  1
  Cl  Cl33  1  0.18112900  0.97281800  0.02238000  1
  Cl  Cl34  1  0.69415800  0.48924200  0.01897500  1
  Cl  Cl35  1  0.16787200  0.05673300  0.25546000  1
  Cl  Cl36  1  0.05139400  0.49334600  0.05878700  1
  Cl  Cl37  1  0.30584200  0.51075800  0.98102500  1
  Cl  Cl38  1  0.87824500  0.87747000  0.41590000  1
  Cl  Cl39  1  0.33212800  0.55673300  0.75546000  1
  Cl  Cl40  1  0.68112900  0.52718200  0.47762000  1
  Cl  Cl41  1  0.81887100  0.02718200  0.97762000  1
  Cl  Cl42  1  0.22985700  0.97220100  0.36470100  1
  Cl  Cl43  1  0.55139400  0.00665400  0.44121300  1
  Cl  Cl44  1  0.62175500  0.37747000  0.91590000  1
  Cl  Cl45  1  0.83212800  0.94326700  0.74454000  1
  Cl  Cl46  1  0.49066700  0.98903600  0.29131400  1
  Cl  Cl47  1  0.77496600  0.93646000  0.20463200  1
  Cl  Cl48  1  0.31887100  0.47281800  0.52238000  1
  Cl  Cl49  1  0.27014300  0.47220100  0.86470100  1
  Cl  Cl50  1  0.44860600  0.99334600  0.55878700  1
  Cl  Cl51  1  0.72985700  0.52779900  0.13529900  1
  Cl  Cl52  1  0.19415800  0.01075800  0.48102500  1
  Cl  Cl53  1  0.22503400  0.06354000  0.79536800  1
  Cl  Cl54  1  0.80584200  0.98924200  0.51897500  1
  Cl  Cl55  1  0.72503400  0.43646000  0.70463200  1
  Cl  Cl56  1  0.00933300  0.48903600  0.79131400  1
  Cl  Cl57  1  0.94860600  0.50665400  0.94121300  1
  Cl  Cl58  1  0.99066700  0.51096400  0.20868600  1
  Cl  Cl59  1  0.66787200  0.44326700  0.24454000  1
  O  O60  1  0.16918500  0.02113200  0.14080300  1
  O  O61  1  0.99127800  0.61683600  0.62723900  1
  O  O62  1  0.08066600  0.28034200  0.69205100  1
  O  O63  1  0.36639500  0.40710600  0.18901900  1
  O  O64  1  0.63360500  0.59289400  0.81098100  1
  O  O65  1  0.91933400  0.71965800  0.30794900  1
  O  O66  1  0.85631200  0.48514900  0.57032000  1
  O  O67  1  0.00872200  0.38316400  0.37276100  1
  O  O68  1  0.45091700  0.51196100  0.39278100  1
  O  O69  1  0.58066600  0.21965800  0.80794900  1
  O  O70  1  0.14368800  0.51485100  0.42968000  1
  O  O71  1  0.13360500  0.90710600  0.68901900  1
  O  O72  1  0.50872200  0.11683600  0.12723900  1
  O  O73  1  0.95091700  0.98803900  0.10721900  1
  O  O74  1  0.41933400  0.78034200  0.19205100  1
  O  O75  1  0.86639500  0.09289400  0.31098100  1
  O  O76  1  0.33081500  0.52113200  0.64080300  1
  O  O77  1  0.83081500  0.97886800  0.85919700  1
  O  O78  1  0.04908300  0.01196100  0.89278100  1
  O  O79  1  0.35631200  0.01485100  0.92968000  1
  O  O80  1  0.54908300  0.48803900  0.60721900  1
  O  O81  1  0.66918500  0.47886800  0.35919700  1
  O  O82  1  0.49127800  0.88316400  0.87276100  1
  O  O83  1  0.64368800  0.98514900  0.07032000  1
