# generated using pymatgen
data_NaLiGe4O9
_symmetry_space_group_name_H-M   'P 1'
_cell_length_a   4.68067905
_cell_length_b   9.34045158
_cell_length_c   15.93622022
_cell_angle_alpha   90.00000000
_cell_angle_beta   90.00000000
_cell_angle_gamma   90.00000000
_symmetry_Int_Tables_number   1
_chemical_formula_structural   NaLiGe4O9
_chemical_formula_sum   'Na4 Li4 Ge16 O36'
_cell_volume   696.72606641
_cell_formula_units_Z   4
loop_
 _symmetry_equiv_pos_site_id
 _symmetry_equiv_pos_as_xyz
  1  'x, y, z'
loop_
 _atom_site_type_symbol
 _atom_site_label
 _atom_site_symmetry_multiplicity
 _atom_site_fract_x
 _atom_site_fract_y
 _atom_site_fract_z
 _atom_site_occupancy
  Na  Na0  1  0.52437398  0.98062053  0.04588555  1
  Na  Na1  1  0.52437398  0.48062053  0.45411445  1
  Na  Na2  1  0.47562602  0.98062053  0.54588555  1
  Na  Na3  1  0.47562602  0.48062053  0.95411445  1
  Li  Li4  1  0.45902682  0.26604527  0.26416604  1
  Li  Li5  1  0.54097318  0.76604527  0.73583396  1
  Li  Li6  1  0.54097318  0.26604527  0.76416604  1
  Li  Li7  1  0.45902682  0.76604527  0.23583396  1
  Ge  Ge8  1  0.00786238  0.29053129  0.59523421  1
  Ge  Ge9  1  0.99213762  0.79053129  0.40476579  1
  Ge  Ge10  1  0.99213762  0.29053129  0.09523421  1
  Ge  Ge11  1  0.00786238  0.79053129  0.90476579  1
  Ge  Ge12  1  0.50206980  0.49949354  0.65486212  1
  Ge  Ge13  1  0.49793020  0.99949354  0.34513788  1
  Ge  Ge14  1  0.49793020  0.49949354  0.15486212  1
  Ge  Ge15  1  0.50206980  0.99949354  0.84513788  1
  Ge  Ge16  1  0.99091655  0.70781912  0.59799488  1
  Ge  Ge17  1  0.99091655  0.20781912  0.90200512  1
  Ge  Ge18  1  0.00908345  0.70781912  0.09799488  1
  Ge  Ge19  1  0.00908345  0.20781912  0.40200512  1
  Ge  Ge20  1  0.99952735  0.50086041  0.29361154  1
  Ge  Ge21  1  0.00047265  0.00086041  0.70638846  1
  Ge  Ge22  1  0.00047265  0.50086041  0.79361154  1
  Ge  Ge23  1  0.99952735  0.00086041  0.20638846  1
  O  O24  1  0.73558703  0.33752076  0.66413940  1
  O  O25  1  0.26441297  0.83752076  0.33586060  1
  O  O26  1  0.26441297  0.33752076  0.16413940  1
  O  O27  1  0.73558703  0.83752076  0.83586060  1
  O  O28  1  0.73595735  0.58855038  0.73737189  1
  O  O29  1  0.26404265  0.08855038  0.26262811  1
  O  O30  1  0.85386931  0.62202998  0.36944070  1
  O  O31  1  0.73595735  0.08855038  0.76262811  1
  O  O32  1  0.72822843  0.58437710  0.57065397  1
  O  O33  1  0.27177157  0.08437710  0.42934603  1
  O  O34  1  0.27177157  0.58437710  0.07065397  1
  O  O35  1  0.26404265  0.58855038  0.23737189  1
  O  O36  1  0.15965676  0.26251077  0.99646993  1
  O  O37  1  0.84034324  0.76251077  0.00353007  1
  O  O38  1  0.84034324  0.26251077  0.49646993  1
  O  O39  1  0.15965676  0.76251077  0.50353007  1
  O  O40  1  0.17290085  0.86542460  0.14309420  1
  O  O41  1  0.82709915  0.36542460  0.85690580  1
  O  O42  1  0.82709915  0.86542460  0.64309420  1
  O  O43  1  0.17290085  0.36542460  0.35690580  1
  O  O44  1  0.27746346  0.91355643  0.92762429  1
  O  O45  1  0.72253654  0.41355643  0.07237571  1
  O  O46  1  0.72253654  0.91355643  0.42762429  1
  O  O47  1  0.27746346  0.41355643  0.57237571  1
  O  O48  1  0.27916038  0.91588179  0.75842584  1
  O  O49  1  0.72083962  0.41588179  0.24157416  1
  O  O50  1  0.72083962  0.91588179  0.25842584  1
  O  O51  1  0.27916038  0.41588179  0.74157416  1
  O  O52  1  0.27530500  0.16377704  0.83678121  1
  O  O53  1  0.72469500  0.66377704  0.16321879  1
  O  O54  1  0.72469500  0.16377704  0.33678121  1
  O  O55  1  0.27530500  0.66377704  0.66321879  1
  O  O56  1  0.85386931  0.12202998  0.13055930  1
  O  O57  1  0.14613069  0.62202998  0.86944070  1
  O  O58  1  0.14613069  0.12202998  0.63055930  1
  O  O59  1  0.72822843  0.08437710  0.92934603  1
