# generated using pymatgen
data_As3Pb5ClO12
_symmetry_space_group_name_H-M   'P 1'
_cell_length_a   10.33030419
_cell_length_b   10.33030382
_cell_length_c   7.34774152
_cell_angle_alpha   90.00000000
_cell_angle_beta   90.00000000
_cell_angle_gamma   119.99999523
_symmetry_Int_Tables_number   1
_chemical_formula_structural   As3Pb5ClO12
_chemical_formula_sum   'As6 Pb10 Cl2 O24'
_cell_volume   679.06403162
_cell_formula_units_Z   2
loop_
 _symmetry_equiv_pos_site_id
 _symmetry_equiv_pos_as_xyz
  1  'x, y, z'
loop_
 _atom_site_type_symbol
 _atom_site_label
 _atom_site_symmetry_multiplicity
 _atom_site_fract_x
 _atom_site_fract_y
 _atom_site_fract_z
 _atom_site_occupancy
  As  As0  1  0.38290734  0.97255332  0.75000000  1
  As  As1  1  0.58964598  0.61709266  0.75000000  1
  As  As2  1  0.97255332  0.58964598  0.25000000  1
  As  As3  1  0.02744668  0.41035402  0.75000000  1
  As  As4  1  0.41035402  0.38290734  0.25000000  1
  As  As5  1  0.61709266  0.02744668  0.25000000  1
  Pb  Pb6  1  0.25577989  0.01745409  0.25000000  1
  Pb  Pb7  1  0.66666700  0.33333300  0.50640056  1
  Pb  Pb8  1  0.23832680  0.25577989  0.75000000  1
  Pb  Pb9  1  0.76167320  0.74422011  0.25000000  1
  Pb  Pb10  1  0.33333300  0.66666700  0.49359944  1
  Pb  Pb11  1  0.98254591  0.23832680  0.25000000  1
  Pb  Pb12  1  0.66666700  0.33333300  0.99359944  1
  Pb  Pb13  1  0.01745409  0.76167320  0.75000000  1
  Pb  Pb14  1  0.33333300  0.66666700  0.00640056  1
  Pb  Pb15  1  0.74422011  0.98254591  0.75000000  1
  Cl  Cl16  1  0.00000000  0.00000000  0.00000000  1
  Cl  Cl17  1  0.00000000  0.00000000  0.50000000  1
  O  O18  1  0.90809324  0.64080474  0.06594975  1
  O  O19  1  0.26728850  0.90809324  0.93405025  1
  O  O20  1  0.64080474  0.73271150  0.93405025  1
  O  O21  1  0.50186165  0.83949669  0.25000000  1
  O  O22  1  0.33763604  0.49813835  0.25000000  1
  O  O23  1  0.51749219  0.11979058  0.25000000  1
  O  O24  1  0.26728850  0.90809324  0.56594975  1
  O  O25  1  0.35919526  0.26728850  0.43405025  1
  O  O26  1  0.90809324  0.64080474  0.43405025  1
  O  O27  1  0.09190676  0.35919526  0.93405025  1
  O  O28  1  0.11979058  0.60229739  0.75000000  1
  O  O29  1  0.60229739  0.48250781  0.25000000  1
  O  O30  1  0.88020942  0.39770261  0.25000000  1
  O  O31  1  0.66236396  0.50186165  0.75000000  1
  O  O32  1  0.83949669  0.33763604  0.75000000  1
  O  O33  1  0.39770261  0.51749219  0.75000000  1
  O  O34  1  0.16050331  0.66236396  0.25000000  1
  O  O35  1  0.64080474  0.73271150  0.56594975  1
  O  O36  1  0.09190676  0.35919526  0.56594975  1
  O  O37  1  0.73271150  0.09190676  0.06594975  1
  O  O38  1  0.73271150  0.09190676  0.43405025  1
  O  O39  1  0.48250781  0.88020942  0.75000000  1
  O  O40  1  0.35919526  0.26728850  0.06594975  1
  O  O41  1  0.49813835  0.16050331  0.75000000  1
