# generated using pymatgen
data_Na2MgSiO4
_symmetry_space_group_name_H-M   'P 1'
_cell_length_a   5.25000182
_cell_length_b   6.99289119
_cell_length_c   10.90497795
_cell_angle_alpha   90.00000000
_cell_angle_beta   90.00000000
_cell_angle_gamma   90.00000000
_symmetry_Int_Tables_number   1
_chemical_formula_structural   Na2MgSiO4
_chemical_formula_sum   'Na8 Mg4 Si4 O16'
_cell_volume   400.35109102
_cell_formula_units_Z   4
loop_
 _symmetry_equiv_pos_site_id
 _symmetry_equiv_pos_as_xyz
  1  'x, y, z'
loop_
 _atom_site_type_symbol
 _atom_site_label
 _atom_site_symmetry_multiplicity
 _atom_site_fract_x
 _atom_site_fract_y
 _atom_site_fract_z
 _atom_site_occupancy
  Na  Na0  1  0.26302785  0.13001011  0.58791955  1
  Na  Na1  1  0.29124462  0.38455063  0.84199553  1
  Na  Na2  1  0.79124462  0.88455063  0.65800447  1
  Na  Na3  1  0.20875538  0.38455063  0.34199553  1
  Na  Na4  1  0.73697215  0.63001011  0.41208045  1
  Na  Na5  1  0.23697215  0.13001011  0.08791955  1
  Na  Na6  1  0.76302785  0.63001011  0.91208045  1
  Na  Na7  1  0.70875538  0.88455063  0.15800447  1
  Mg  Mg8  1  0.19836541  0.88045312  0.34227624  1
  Mg  Mg9  1  0.30163459  0.88045312  0.84227624  1
  Mg  Mg10  1  0.80163459  0.38045312  0.65772376  1
  Mg  Mg11  1  0.69836541  0.38045312  0.15772376  1
  Si  Si12  1  0.69458331  0.13240569  0.40614026  1
  Si  Si13  1  0.30541669  0.63240569  0.59385974  1
  Si  Si14  1  0.80541669  0.13240569  0.90614026  1
  Si  Si15  1  0.19458331  0.63240569  0.09385974  1
  O  O16  1  0.38733535  0.10400595  0.38929072  1
  O  O17  1  0.61266465  0.60400595  0.61070928  1
  O  O18  1  0.11266465  0.10400595  0.88929072  1
  O  O19  1  0.88733535  0.60400595  0.11070928  1
  O  O20  1  0.75392801  0.15989243  0.55250761  1
  O  O21  1  0.24607199  0.65989243  0.44749239  1
  O  O22  1  0.74607199  0.15989243  0.05250761  1
  O  O23  1  0.25392801  0.65989243  0.94749239  1
  O  O24  1  0.83742265  0.94080507  0.35506472  1
  O  O25  1  0.16257735  0.44080507  0.64493528  1
  O  O26  1  0.66257735  0.94080507  0.85506472  1
  O  O27  1  0.27909879  0.82387601  0.17058183  1
  O  O28  1  0.77909879  0.32387601  0.32941817  1
  O  O29  1  0.22090121  0.82387601  0.67058183  1
  O  O30  1  0.72090121  0.32387601  0.82941817  1
  O  O31  1  0.33742265  0.44080507  0.14493528  1
