# generated using pymatgen
data_Cs4Zr3S14
_symmetry_space_group_name_H-M   'P 1'
_cell_length_a   11.92777848
_cell_length_b   11.92777210
_cell_length_c   14.14126102
_cell_angle_alpha   69.13396373
_cell_angle_beta   69.13400988
_cell_angle_gamma   42.23922277
_symmetry_Int_Tables_number   1
_chemical_formula_structural   Cs4Zr3S14
_chemical_formula_sum   'Cs8 Zr6 S28'
_cell_volume   1249.98376155
_cell_formula_units_Z   2
loop_
 _symmetry_equiv_pos_site_id
 _symmetry_equiv_pos_as_xyz
  1  'x, y, z'
loop_
 _atom_site_type_symbol
 _atom_site_label
 _atom_site_symmetry_multiplicity
 _atom_site_fract_x
 _atom_site_fract_y
 _atom_site_fract_z
 _atom_site_occupancy
  Cs  Cs0  1  0.47853133  0.11194176  0.61025271  1
  Cs  Cs1  1  0.17709709  0.69934890  0.64345662  1
  Cs  Cs2  1  0.88805854  0.52146865  0.88974720  1
  Cs  Cs3  1  0.30065130  0.82290301  0.85654327  1
  Cs  Cs4  1  0.52146867  0.88805824  0.38974744  1
  Cs  Cs5  1  0.82290312  0.30065093  0.35654342  1
  Cs  Cs6  1  0.11194177  0.47853115  0.11025260  1
  Cs  Cs7  1  0.69934890  0.17709707  0.14345676  1
  Zr  Zr8  1  0.58066778  0.08354751  0.91362785  1
  Zr  Zr9  1  0.26309627  0.73690320  0.25000031  1
  Zr  Zr10  1  0.08354906  0.58066765  0.41362580  1
  Zr  Zr11  1  0.91645208  0.41933263  0.58637192  1
  Zr  Zr12  1  0.41933297  0.91645069  0.08637237  1
  Zr  Zr13  1  0.73690176  0.26309810  0.74999972  1
  S  S14  1  0.73662908  0.07103686  0.70899192  1
  S  S15  1  0.56564787  0.60479450  0.13137532  1
  S  S16  1  0.01341601  0.84838026  0.41299356  1
  S  S17  1  0.29902460  0.61576102  0.11170802  1
  S  S18  1  0.84837995  0.01341651  0.91299352  1
  S  S19  1  0.43435307  0.39520546  0.86862520  1
  S  S20  1  0.65064419  0.68469981  0.66412978  1
  S  S21  1  0.31530087  0.34935539  0.83587021  1
  S  S22  1  0.50439057  0.93665779  0.90076411  1
  S  S23  1  0.60479426  0.56564730  0.63137487  1
  S  S24  1  0.09893990  0.18660529  0.10811566  1
  S  S25  1  0.49560970  0.06333963  0.09923605  1
  S  S26  1  0.98658343  0.15161995  0.58700656  1
  S  S27  1  0.92896385  0.26337076  0.79100782  1
  S  S28  1  0.70097469  0.38423950  0.88829212  1
  S  S29  1  0.18660409  0.09893939  0.60811549  1
  S  S30  1  0.93665774  0.50439039  0.40076438  1
  S  S31  1  0.68469876  0.65064383  0.16412947  1
  S  S32  1  0.38423899  0.70097498  0.38829199  1
  S  S33  1  0.81339327  0.90106024  0.39188679  1
  S  S34  1  0.39520546  0.43435315  0.36862499  1
  S  S35  1  0.61576118  0.29902462  0.61170822  1
  S  S36  1  0.06334202  0.49561003  0.59923523  1
  S  S37  1  0.15161994  0.98658342  0.08700655  1
  S  S38  1  0.07103655  0.73662937  0.20899188  1
  S  S39  1  0.34935579  0.31530044  0.33587013  1
  S  S40  1  0.26337092  0.92896320  0.29100793  1
  S  S41  1  0.90106060  0.81339439  0.89188425  1
