# generated using pymatgen
data_Cs2AgBr3
_symmetry_space_group_name_H-M   'P 1'
_cell_length_a   4.74392570
_cell_length_b   13.92708011
_cell_length_c   14.45216056
_cell_angle_alpha   90.00000000
_cell_angle_beta   90.00000000
_cell_angle_gamma   90.00000000
_symmetry_Int_Tables_number   1
_chemical_formula_structural   Cs2AgBr3
_chemical_formula_sum   'Cs8 Ag4 Br12'
_cell_volume   954.84027671
_cell_formula_units_Z   4
loop_
 _symmetry_equiv_pos_site_id
 _symmetry_equiv_pos_as_xyz
  1  'x, y, z'
loop_
 _atom_site_type_symbol
 _atom_site_label
 _atom_site_symmetry_multiplicity
 _atom_site_fract_x
 _atom_site_fract_y
 _atom_site_fract_z
 _atom_site_occupancy
  Cs  Cs0  1  0.75000000  0.98860188  0.82588216  1
  Cs  Cs1  1  0.25000000  0.17291482  0.51907086  1
  Cs  Cs2  1  0.75000000  0.82708518  0.48092914  1
  Cs  Cs3  1  0.75000000  0.48860188  0.67411784  1
  Cs  Cs4  1  0.25000000  0.51139812  0.32588216  1
  Cs  Cs5  1  0.25000000  0.01139812  0.17411784  1
  Cs  Cs6  1  0.75000000  0.32708518  0.01907086  1
  Cs  Cs7  1  0.25000000  0.67291482  0.98092914  1
  Ag  Ag8  1  0.25000000  0.25525431  0.80340644  1
  Ag  Ag9  1  0.75000000  0.24474569  0.30340644  1
  Ag  Ag10  1  0.25000000  0.75525431  0.69659356  1
  Ag  Ag11  1  0.75000000  0.74474569  0.19659356  1
  Br  Br12  1  0.25000000  0.13712735  0.95128862  1
  Br  Br13  1  0.75000000  0.22502245  0.71220470  1
  Br  Br14  1  0.75000000  0.86287265  0.04871138  1
  Br  Br15  1  0.25000000  0.44100027  0.85975049  1
  Br  Br16  1  0.25000000  0.77497755  0.28779530  1
  Br  Br17  1  0.75000000  0.72502245  0.78779530  1
  Br  Br18  1  0.25000000  0.27497755  0.21220470  1
  Br  Br19  1  0.25000000  0.63712735  0.54871138  1
  Br  Br20  1  0.75000000  0.05899973  0.35975049  1
  Br  Br21  1  0.75000000  0.55899973  0.14024951  1
  Br  Br22  1  0.75000000  0.36287265  0.45128862  1
  Br  Br23  1  0.25000000  0.94100027  0.64024951  1
