# generated using pymatgen
data_Gd13Ge6O31F
_symmetry_space_group_name_H-M   'P 1'
_cell_length_a   9.83357549
_cell_length_b   9.83357499
_cell_length_c   9.83357577
_cell_angle_alpha   109.80993900
_cell_angle_beta   109.80993792
_cell_angle_gamma   109.80993592
_symmetry_Int_Tables_number   1
_chemical_formula_structural   Gd13Ge6O31F
_chemical_formula_sum   'Gd13 Ge6 O31 F1'
_cell_volume   722.67684041
_cell_formula_units_Z   1
loop_
 _symmetry_equiv_pos_site_id
 _symmetry_equiv_pos_as_xyz
  1  'x, y, z'
loop_
 _atom_site_type_symbol
 _atom_site_label
 _atom_site_symmetry_multiplicity
 _atom_site_fract_x
 _atom_site_fract_y
 _atom_site_fract_z
 _atom_site_occupancy
  Gd  Gd0  1  0.85161734  0.94243724  0.27533975  1
  Gd  Gd1  1  0.94243724  0.27533975  0.85161734  1
  Gd  Gd2  1  0.18522087  0.46911527  0.32940750  1
  Gd  Gd3  1  0.00505510  0.00505510  0.00505510  1
  Gd  Gd4  1  0.15468165  0.06065211  0.72562597  1
  Gd  Gd5  1  0.72562597  0.15468165  0.06065211  1
  Gd  Gd6  1  0.82818719  0.52470388  0.67647361  1
  Gd  Gd7  1  0.06065211  0.72562597  0.15468165  1
  Gd  Gd8  1  0.52470388  0.67647361  0.82818719  1
  Gd  Gd9  1  0.27533975  0.85161734  0.94243724  1
  Gd  Gd10  1  0.46911527  0.32940750  0.18522087  1
  Gd  Gd11  1  0.67647361  0.82818719  0.52470388  1
  Gd  Gd12  1  0.32940750  0.18522087  0.46911527  1
  Ge  Ge13  1  0.06929194  0.34210337  0.55681862  1
  Ge  Ge14  1  0.44678572  0.93386236  0.66019239  1
  Ge  Ge15  1  0.66019239  0.44678572  0.93386236  1
  Ge  Ge16  1  0.93386236  0.66019239  0.44678572  1
  Ge  Ge17  1  0.55681862  0.06929194  0.34210337  1
  Ge  Ge18  1  0.34210337  0.55681862  0.06929194  1
  O  O19  1  0.10663943  0.17675432  0.55596482  1
  O  O20  1  0.93122255  0.25026036  0.33893529  1
  O  O21  1  0.75216737  0.66631054  0.07210817  1
  O  O22  1  0.25172621  0.50916983  0.59770940  1
  O  O23  1  0.41541428  0.74849489  0.50318296  1
  O  O24  1  0.50916983  0.59770940  0.25172621  1
  O  O25  1  0.17675432  0.55596482  0.10663943  1
  O  O26  1  0.99426332  0.40801689  0.69227148  1
  O  O27  1  0.31396861  0.00926335  0.59404922  1
  O  O28  1  0.07210817  0.75216737  0.66631054  1
  O  O29  1  0.59404922  0.31396861  0.00926335  1
  O  O30  1  0.55596482  0.10663943  0.17675432  1
  O  O31  1  0.00926335  0.59404922  0.31396861  1
  O  O32  1  0.66631054  0.07210817  0.75216737  1
  O  O33  1  0.40801689  0.69227148  0.99426332  1
  O  O34  1  0.50318296  0.41541428  0.74849489  1
  O  O35  1  0.75527650  0.93091164  0.02297907  1
  O  O36  1  0.45038886  0.90102623  0.83014051  1
  O  O37  1  0.74849489  0.50318296  0.41541428  1
  O  O38  1  0.83014051  0.45038886  0.90102623  1
  O  O39  1  0.07117025  0.97763149  0.24287093  1
  O  O40  1  0.24287093  0.07117025  0.97763149  1
  O  O41  1  0.31539313  0.31539313  0.31539313  1
  O  O42  1  0.93091164  0.02297907  0.75527650  1
  O  O43  1  0.69227148  0.99426332  0.40801689  1
  O  O44  1  0.90102623  0.83014051  0.45038886  1
  O  O45  1  0.33893529  0.93122255  0.25026036  1
  O  O46  1  0.59770940  0.25172621  0.50916983  1
  O  O47  1  0.02297907  0.75527650  0.93091164  1
  O  O48  1  0.97763149  0.24287093  0.07117025  1
  O  O49  1  0.25026036  0.33893529  0.93122255  1
  F  F50  1  0.70264625  0.70264625  0.70264625  1
