# generated using pymatgen
data_Na6Al4Fe(Si4O13)2
_symmetry_space_group_name_H-M   'P 1'
_cell_length_a   7.97901570
_cell_length_b   8.44918558
_cell_length_c   10.54585679
_cell_angle_alpha   110.98525266
_cell_angle_beta   89.94083237
_cell_angle_gamma   118.17668785
_symmetry_Int_Tables_number   1
_chemical_formula_structural   Na6Al4Fe(Si4O13)2
_chemical_formula_sum   'Na6 Al4 Fe1 Si8 O26'
_cell_volume   572.81053377
_cell_formula_units_Z   1
loop_
 _symmetry_equiv_pos_site_id
 _symmetry_equiv_pos_as_xyz
  1  'x, y, z'
loop_
 _atom_site_type_symbol
 _atom_site_label
 _atom_site_symmetry_multiplicity
 _atom_site_fract_x
 _atom_site_fract_y
 _atom_site_fract_z
 _atom_site_occupancy
  Na  Na0  1  0.14758870  0.30212524  0.87977178  1
  Na  Na1  1  0.27901839  0.54118090  0.55847330  1
  Na  Na2  1  0.48131859  0.93513927  0.16639918  1
  Na  Na3  1  0.54382456  0.06591578  0.83299841  1
  Na  Na4  1  0.73702676  0.45839066  0.44154800  1
  Na  Na5  1  0.84508041  0.69869998  0.12134119  1
  Al  Al6  1  0.15875714  0.70494540  0.34614041  1
  Al  Al7  1  0.45382846  0.29563560  0.65404519  1
  Al  Al8  1  0.74960279  0.88356147  0.65388059  1
  Al  Al9  1  0.86688478  0.11622398  0.34609359  1
  Fe  Fe10  1  0.98530537  -0.00019302  0.99981503  1
  Si  Si11  1  0.14246353  0.88364824  0.65506976  1
  Si  Si12  1  0.15118732  0.70343049  0.86940585  1
  Si  Si13  1  0.25996257  0.11633731  0.34491885  1
  Si  Si14  1  0.53521685  0.70118035  0.87077001  1
  Si  Si15  1  0.54915806  0.69969495  0.34710655  1
  Si  Si16  1  0.44859497  0.29548863  0.12992838  1
  Si  Si17  1  0.83601169  0.29991377  0.12986237  1
  Si  Si18  1  0.84896460  0.29970902  0.65267645  1
  O  O19  1  0.06141910  0.79884661  0.98473683  1
  O  O20  1  0.06296287  0.72048056  0.49678081  1
  O  O21  1  0.02259394  0.46327137  0.79118349  1
  O  O22  1  0.27261490  0.92481526  0.32573290  1
  O  O23  1  0.19544727  0.78425990  0.74595168  1
  O  O24  1  0.04236087  0.05759032  0.28857752  1
  O  O25  1  0.32549977  0.63008670  0.35968065  1
  O  O26  1  0.36384052  0.74814584  0.93585472  1
  O  O27  1  0.26422353  0.19840796  0.01364886  1
  O  O28  1  0.34362925  0.28009867  0.50307536  1
  O  O29  1  0.58063807  0.78327112  0.74873476  1
  O  O30  1  0.43042591  0.46364324  0.79708570  1
  O  O31  1  0.65439369  0.90120935  0.32522810  1
  O  O32  1  0.34633647  0.07567670  0.67446275  1
  O  O33  1  0.55865250  0.53558182  0.20836753  1
  O  O34  1  0.41186625  0.21499012  0.25348600  1
  O  O35  1  0.65929681  0.71033366  0.48158731  1
  O  O36  1  0.71176180  0.80689705  0.99795993  1
  O  O37  1  0.61763886  0.25175371  0.06421765  1
  O  O38  1  0.69532253  0.36983265  0.64033822  1
  O  O39  1  0.98341632  0.94214759  0.71171728  1
  O  O40  1  0.79918892  0.21761399  0.25180738  1
  O  O41  1  0.75141946  0.09804557  0.67431872  1
  O  O42  1  0.96721755  0.53748566  0.20343459  1
  O  O43  1  0.94909189  0.28905215  0.51837672  1
  O  O44  1  0.90894342  0.19543644  0.00340965  1
