# generated using pymatgen
data_In4SnS4
_symmetry_space_group_name_H-M   'P 1'
_cell_length_a   12.53180144
_cell_length_b   12.53180144
_cell_length_c   12.53180144
_cell_angle_alpha   90.00000000
_cell_angle_beta   90.00000000
_cell_angle_gamma   90.00000000
_symmetry_Int_Tables_number   1
_chemical_formula_structural   In4SnS4
_chemical_formula_sum   'In32 Sn8 S32'
_cell_volume   1968.06988210
_cell_formula_units_Z   8
loop_
 _symmetry_equiv_pos_site_id
 _symmetry_equiv_pos_as_xyz
  1  'x, y, z'
loop_
 _atom_site_type_symbol
 _atom_site_label
 _atom_site_symmetry_multiplicity
 _atom_site_fract_x
 _atom_site_fract_y
 _atom_site_fract_z
 _atom_site_occupancy
  In  In0  1  0.76977283  0.02795880  0.43341455  1
  In  In1  1  0.52795880  0.43341455  0.73022717  1
  In  In2  1  0.23022717  0.97204120  0.56658545  1
  In  In3  1  0.22891031  0.72891031  0.77108969  1
  In  In4  1  0.56658545  0.26977283  0.47204120  1
  In  In5  1  0.76977283  0.47204120  0.93341455  1
  In  In6  1  0.22891031  0.77108969  0.27108969  1
  In  In7  1  0.43341455  0.76977283  0.02795880  1
  In  In8  1  0.93341455  0.76977283  0.47204120  1
  In  In9  1  0.47204120  0.56658545  0.26977283  1
  In  In10  1  0.26977283  0.02795880  0.06658545  1
  In  In11  1  0.93341455  0.73022717  0.97204120  1
  In  In12  1  0.77108969  0.27108969  0.22891031  1
  In  In13  1  0.02795880  0.43341455  0.76977283  1
  In  In14  1  0.56658545  0.23022717  0.97204120  1
  In  In15  1  0.26977283  0.47204120  0.56658545  1
  In  In16  1  0.73022717  0.52795880  0.43341455  1
  In  In17  1  0.72891031  0.72891031  0.72891031  1
  In  In18  1  0.23022717  0.52795880  0.06658545  1
  In  In19  1  0.02795880  0.06658545  0.26977283  1
  In  In20  1  0.52795880  0.06658545  0.23022717  1
  In  In21  1  0.97204120  0.93341455  0.73022717  1
  In  In22  1  0.27108969  0.22891031  0.77108969  1
  In  In23  1  0.43341455  0.73022717  0.52795880  1
  In  In24  1  0.72891031  0.77108969  0.22891031  1
  In  In25  1  0.47204120  0.93341455  0.76977283  1
  In  In26  1  0.73022717  0.97204120  0.93341455  1
  In  In27  1  0.77108969  0.22891031  0.72891031  1
  In  In28  1  0.06658545  0.23022717  0.52795880  1
  In  In29  1  0.97204120  0.56658545  0.23022717  1
  In  In30  1  0.06658545  0.26977283  0.02795880  1
  In  In31  1  0.27108969  0.27108969  0.27108969  1
  Sn  Sn32  1  0.60050689  0.89949311  0.10050689  1
  Sn  Sn33  1  0.60050689  0.60050689  0.60050689  1
  Sn  Sn34  1  0.39949311  0.10050689  0.89949311  1
  Sn  Sn35  1  0.89949311  0.10050689  0.60050689  1
  Sn  Sn36  1  0.89949311  0.39949311  0.10050689  1
  Sn  Sn37  1  0.10050689  0.89949311  0.39949311  1
  Sn  Sn38  1  0.10050689  0.60050689  0.89949311  1
  Sn  Sn39  1  0.39949311  0.39949311  0.39949311  1
  S  S40  1  0.07530020  0.25538747  0.32627329  1
  S  S41  1  0.42469980  0.75538747  0.32627329  1
  S  S42  1  0.75538747  0.17372671  0.92469980  1
  S  S43  1  0.25538747  0.32627329  0.07530020  1
  S  S44  1  0.92469980  0.75538747  0.17372671  1
  S  S45  1  0.57632256  0.42367744  0.92367744  1
  S  S46  1  0.74461253  0.82627329  0.42469980  1
  S  S47  1  0.92469980  0.74461253  0.67372671  1
  S  S48  1  0.67372671  0.92469980  0.74461253  1
  S  S49  1  0.42469980  0.74461253  0.82627329  1
  S  S50  1  0.17372671  0.92469980  0.75538747  1
  S  S51  1  0.57530020  0.25538747  0.17372671  1
  S  S52  1  0.07530020  0.24461253  0.82627329  1
  S  S53  1  0.75538747  0.32627329  0.42469980  1
  S  S54  1  0.82627329  0.07530020  0.24461253  1
  S  S55  1  0.07632256  0.42367744  0.57632256  1
  S  S56  1  0.17372671  0.57530020  0.25538747  1
  S  S57  1  0.82627329  0.42469980  0.74461253  1
  S  S58  1  0.57632256  0.07632256  0.42367744  1
  S  S59  1  0.07632256  0.07632256  0.07632256  1
  S  S60  1  0.25538747  0.17372671  0.57530020  1
  S  S61  1  0.67372671  0.57530020  0.24461253  1
  S  S62  1  0.42367744  0.57632256  0.07632256  1
  S  S63  1  0.24461253  0.67372671  0.57530020  1
  S  S64  1  0.74461253  0.67372671  0.92469980  1
  S  S65  1  0.32627329  0.42469980  0.75538747  1
  S  S66  1  0.32627329  0.07530020  0.25538747  1
  S  S67  1  0.24461253  0.82627329  0.07530020  1
  S  S68  1  0.42367744  0.92367744  0.57632256  1
  S  S69  1  0.92367744  0.92367744  0.92367744  1
  S  S70  1  0.57530020  0.24461253  0.67372671  1
  S  S71  1  0.92367744  0.57632256  0.42367744  1
