# generated using pymatgen
data_Na2BeSiO4
_symmetry_space_group_name_H-M   'P 1'
_cell_length_a   4.88616329
_cell_length_b   9.81108386
_cell_length_c   13.75223058
_cell_angle_alpha   90.00000000
_cell_angle_beta   90.00000000
_cell_angle_gamma   90.00000000
_symmetry_Int_Tables_number   1
_chemical_formula_structural   Na2BeSiO4
_chemical_formula_sum   'Na16 Be8 Si8 O32'
_cell_volume   659.26210043
_cell_formula_units_Z   8
loop_
 _symmetry_equiv_pos_site_id
 _symmetry_equiv_pos_as_xyz
  1  'x, y, z'
loop_
 _atom_site_type_symbol
 _atom_site_label
 _atom_site_symmetry_multiplicity
 _atom_site_fract_x
 _atom_site_fract_y
 _atom_site_fract_z
 _atom_site_occupancy
  Na  Na0  1  0.96939120  0.72711855  0.30067048  1
  Na  Na1  1  0.03060880  0.27288145  0.80067048  1
  Na  Na2  1  0.03060880  0.22711855  0.30067048  1
  Na  Na3  1  0.96939120  0.77288145  0.80067048  1
  Na  Na4  1  0.46845926  0.73174915  0.16757402  1
  Na  Na5  1  0.53154074  0.26825085  0.66757402  1
  Na  Na6  1  0.53154074  0.23174915  0.16757402  1
  Na  Na7  1  0.46845926  0.76825085  0.66757402  1
  Na  Na8  1  0.47751431  0.99562619  0.04173133  1
  Na  Na9  1  0.00727381  0.01198849  0.92620797  1
  Na  Na10  1  0.99272619  0.98801151  0.42620797  1
  Na  Na11  1  0.99272619  0.51198849  0.92620797  1
  Na  Na12  1  0.52248569  0.00437381  0.54173133  1
  Na  Na13  1  0.47751431  0.50437381  0.54173133  1
  Na  Na14  1  0.52248569  0.49562619  0.04173133  1
  Na  Na15  1  0.00727381  0.48801151  0.42620797  1
  Be  Be16  1  0.99184978  0.76800866  0.55011004  1
  Be  Be17  1  0.00815022  0.23199134  0.05011004  1
  Be  Be18  1  0.00815022  0.26800866  0.55011004  1
  Be  Be19  1  0.99184978  0.73199134  0.05011004  1
  Be  Be20  1  0.47268543  0.98696509  0.29446738  1
  Be  Be21  1  0.52731457  0.01303491  0.79446738  1
  Be  Be22  1  0.52731457  0.48696509  0.29446738  1
  Be  Be23  1  0.47268543  0.51303491  0.79446738  1
  Si  Si24  1  0.97347093  0.98369483  0.17456530  1
  Si  Si25  1  0.48908579  0.76639455  0.91972433  1
  Si  Si26  1  0.51091421  0.23360545  0.41972433  1
  Si  Si27  1  0.51091421  0.26639455  0.91972433  1
  Si  Si28  1  0.48908579  0.73360545  0.41972433  1
  Si  Si29  1  0.97347093  0.51630517  0.67456530  1
  Si  Si30  1  0.02652907  0.48369483  0.17456530  1
  Si  Si31  1  0.02652907  0.01630517  0.67456530  1
  O  O32  1  0.12345501  0.91394048  0.58735875  1
  O  O33  1  0.70252295  0.51279425  0.19473223  1
  O  O34  1  0.29747705  0.48720575  0.69473223  1
  O  O35  1  0.29747705  0.01279425  0.19473223  1
  O  O36  1  0.70252295  0.98720575  0.69473223  1
  O  O37  1  0.20039964  0.51465756  0.27350912  1
  O  O38  1  0.79960036  0.48534244  0.77350912  1
  O  O39  1  0.79960036  0.01465756  0.27350912  1
  O  O40  1  0.20039964  0.98534244  0.77350912  1
  O  O41  1  0.62401499  0.59257991  0.38000837  1
  O  O42  1  0.37598501  0.40742009  0.88000837  1
  O  O43  1  0.37598501  0.09257991  0.38000837  1
  O  O44  1  0.62401499  0.90742009  0.88000837  1
  O  O45  1  0.12345501  0.58605952  0.08735875  1
  O  O46  1  0.87654499  0.41394048  0.58735875  1
  O  O47  1  0.87654499  0.08605952  0.08735875  1
  O  O48  1  0.22423559  0.69068578  0.48509988  1
  O  O49  1  0.77576441  0.30931422  0.98509988  1
  O  O50  1  0.77576441  0.19068578  0.48509988  1
  O  O51  1  0.22423559  0.80931422  0.98509988  1
  O  O52  1  0.72128018  0.69036029  0.98510234  1
  O  O53  1  0.27871982  0.30963971  0.48510234  1
  O  O54  1  0.27871982  0.19036029  0.98510234  1
  O  O55  1  0.72128018  0.80963971  0.48510234  1
  O  O56  1  0.91234754  0.82563923  0.14421902  1
  O  O57  1  0.08765246  0.17436077  0.64421902  1
  O  O58  1  0.08765246  0.32563923  0.14421902  1
  O  O59  1  0.91234754  0.67436077  0.64421902  1
  O  O60  1  0.39940842  0.67010661  0.82892044  1
  O  O61  1  0.60059158  0.17010661  0.82892044  1
  O  O62  1  0.60059158  0.32989339  0.32892044  1
  O  O63  1  0.39940842  0.82989339  0.32892044  1
