# generated using pymatgen
data_CdI2
_symmetry_space_group_name_H-M   'P 1'
_cell_length_a   4.28321913
_cell_length_b   4.28321743
_cell_length_c   71.55874472
_cell_angle_alpha   90.00000000
_cell_angle_beta   90.00000000
_cell_angle_gamma   119.99999720
_symmetry_Int_Tables_number   1
_chemical_formula_structural   CdI2
_chemical_formula_sum   'Cd10 I20'
_cell_volume   1136.93011898
_cell_formula_units_Z   10
loop_
 _symmetry_equiv_pos_site_id
 _symmetry_equiv_pos_as_xyz
  1  'x, y, z'
loop_
 _atom_site_type_symbol
 _atom_site_label
 _atom_site_symmetry_multiplicity
 _atom_site_fract_x
 _atom_site_fract_y
 _atom_site_fract_z
 _atom_site_occupancy
  Cd  Cd0  1  0.33333300  0.66666700  0.62521969  1
  Cd  Cd1  1  0.66666700  0.33333300  0.22500092  1
  Cd  Cd2  1  0.00000000  -0.00000000  0.92497589  1
  Cd  Cd3  1  0.00000000  0.00000000  0.82500425  1
  Cd  Cd4  1  0.66666700  0.33333300  0.72522040  1
  Cd  Cd5  1  0.66666700  0.33333300  0.02440390  1
  Cd  Cd6  1  0.00000000  -0.00000000  0.32515173  1
  Cd  Cd7  1  0.00000000  0.00000000  0.12489225  1
  Cd  Cd8  1  0.66666700  0.33333300  0.42514396  1
  Cd  Cd9  1  0.33333300  0.66666700  0.52500779  1
  I  I10  1  0.66666700  0.33333300  0.64925741  1
  I  I11  1  0.33333300  0.66666700  0.44925546  1
  I  I12  1  0.33333300  0.66666700  0.94906611  1
  I  I13  1  0.66666700  0.33333300  0.10074537  1
  I  I14  1  0.66666700  0.33333300  0.90092446  1
  I  I15  1  0.33333300  0.66666700  0.34925492  1
  I  I16  1  0.00000000  0.00000000  0.60115371  1
  I  I17  1  0.00000000  -0.00000000  0.20092458  1
  I  I18  1  0.00000000  -0.00000000  0.40102361  1
  I  I19  1  0.66666700  0.33333300  0.80092427  1
  I  I20  1  0.33333300  0.66666700  0.04852301  1
  I  I21  1  0.66666700  0.33333300  0.30103195  1
  I  I22  1  0.33333300  0.66666700  0.14904224  1
  I  I23  1  0.33333300  0.66666700  0.24907584  1
  I  I24  1  0.00000000  -0.00000000  0.00027587  1
  I  I25  1  0.00000000  -0.00000000  0.70115324  1
  I  I26  1  0.33333300  0.66666700  0.84907660  1
  I  I27  1  0.66666700  0.33333300  0.54907599  1
  I  I28  1  0.33333300  0.66666700  0.74925599  1
  I  I29  1  -0.00000000  -0.00000000  0.50092960  1
