# generated using pymatgen
data_In(HO)3
_symmetry_space_group_name_H-M   'P 1'
_cell_length_a   6.91043259
_cell_length_b   6.91043260
_cell_length_c   6.91043195
_cell_angle_alpha   109.67157319
_cell_angle_beta   109.67157316
_cell_angle_gamma   109.67157366
_symmetry_Int_Tables_number   1
_chemical_formula_structural   In(HO)3
_chemical_formula_sum   'In4 H12 O12'
_cell_volume   252.13312880
_cell_formula_units_Z   4
loop_
 _symmetry_equiv_pos_site_id
 _symmetry_equiv_pos_as_xyz
  1  'x, y, z'
loop_
 _atom_site_type_symbol
 _atom_site_label
 _atom_site_symmetry_multiplicity
 _atom_site_fract_x
 _atom_site_fract_y
 _atom_site_fract_z
 _atom_site_occupancy
  In  In0  1  0.50000000  0.00000000  0.00000000  1
  In  In1  1  0.00000000  0.50000000  0.00000000  1
  In  In2  1  0.00000000  0.00000000  0.50000000  1
  In  In3  1  0.50000000  0.50000000  0.50000000  1
  H  H4  1  0.45173923  0.82596194  0.27691496  1
  H  H5  1  0.54826077  0.17403806  0.72308504  1
  H  H6  1  0.31375178  0.04288889  0.35709420  1
  H  H7  1  0.68624822  0.95711111  0.64290580  1
  H  H8  1  0.82596194  0.27691496  0.45173923  1
  H  H9  1  0.17403806  0.72308504  0.54826077  1
  H  H10  1  0.04288889  0.35709420  0.31375178  1
  H  H11  1  0.95711111  0.64290580  0.68624822  1
  H  H12  1  0.27691496  0.45173923  0.82596194  1
  H  H13  1  0.72308504  0.54826077  0.17403806  1
  H  H14  1  0.35709420  0.31375178  0.04288889  1
  H  H15  1  0.64290580  0.68624822  0.95711111  1
  O  O16  1  0.32624156  0.83149411  0.15997256  1
  O  O17  1  0.67375844  0.16850589  0.84002744  1
  O  O18  1  0.31797832  0.16695098  0.48672798  1
  O  O19  1  0.68202168  0.83304902  0.51327202  1
  O  O20  1  0.83149411  0.15997256  0.32624156  1
  O  O21  1  0.16850589  0.84002744  0.67375844  1
  O  O22  1  0.16695098  0.48672798  0.31797832  1
  O  O23  1  0.83304902  0.51327202  0.68202168  1
  O  O24  1  0.15997256  0.32624156  0.83149411  1
  O  O25  1  0.84002744  0.67375844  0.16850589  1
  O  O26  1  0.48672798  0.31797832  0.16695098  1
  O  O27  1  0.51327202  0.68202168  0.83304902  1
