# generated using pymatgen
data_Ba(HO)2
_symmetry_space_group_name_H-M   'P 1'
_cell_length_a   7.86797379
_cell_length_b   6.78095236
_cell_length_c   11.08245612
_cell_angle_alpha   57.63178998
_cell_angle_beta   90.00000000
_cell_angle_gamma   90.00000000
_symmetry_Int_Tables_number   1
_chemical_formula_structural   Ba(HO)2
_chemical_formula_sum   'Ba8 H16 O16'
_cell_volume   499.40581842
_cell_formula_units_Z   8
loop_
 _symmetry_equiv_pos_site_id
 _symmetry_equiv_pos_as_xyz
  1  'x, y, z'
loop_
 _atom_site_type_symbol
 _atom_site_label
 _atom_site_symmetry_multiplicity
 _atom_site_fract_x
 _atom_site_fract_y
 _atom_site_fract_z
 _atom_site_occupancy
  Ba  Ba0  1  0.85570999  0.35656345  0.89497560  1
  Ba  Ba1  1  0.64429001  0.35656345  0.39497560  1
  Ba  Ba2  1  0.14429001  0.64343655  0.10502440  1
  Ba  Ba3  1  0.35570999  0.64343655  0.60502440  1
  Ba  Ba4  1  0.95154919  0.96377777  0.31806547  1
  Ba  Ba5  1  0.54845081  0.96377777  0.81806547  1
  Ba  Ba6  1  0.04845081  0.03622223  0.68193453  1
  Ba  Ba7  1  0.45154919  0.03622223  0.18193453  1
  H  H8  1  0.95760793  0.57233704  0.61647029  1
  H  H9  1  0.54239207  0.57233704  0.11647029  1
  H  H10  1  0.04239207  0.42766296  0.38352971  1
  H  H11  1  0.45760793  0.42766296  0.88352971  1
  H  H12  1  0.14968059  0.19770513  0.02295699  1
  H  H13  1  0.35031941  0.19770513  0.52295699  1
  H  H14  1  0.85031941  0.80229487  0.97704301  1
  H  H15  1  0.64968059  0.80229487  0.47704301  1
  H  H16  1  0.27276829  0.18335740  0.88017806  1
  H  H17  1  0.22723171  0.18335740  0.38017806  1
  H  H18  1  0.72723171  0.81664260  0.11982194  1
  H  H19  1  0.77276829  0.81664260  0.61982194  1
  H  H20  1  0.26195760  0.53825753  0.40699836  1
  H  H21  1  0.23804240  0.53825753  0.90699836  1
  H  H22  1  0.73804240  0.46174247  0.59300164  1
  H  H23  1  0.76195760  0.46174247  0.09300164  1
  O  O24  1  0.00512529  0.70296667  0.61905524  1
  O  O25  1  0.49487471  0.70296667  0.11905524  1
  O  O26  1  -0.00512529  0.29703333  0.38094476  1
  O  O27  1  0.50512529  0.29703333  0.88094476  1
  O  O28  1  0.13926454  0.26490752  0.08244594  1
  O  O29  1  0.36073546  0.26490752  0.58244594  1
  O  O30  1  0.86073546  0.73509248  0.91755406  1
  O  O31  1  0.63926454  0.73509248  0.41755406  1
  O  O32  1  0.16000991  0.11439232  0.89383988  1
  O  O33  1  0.33999009  0.11439232  0.39383988  1
  O  O34  1  0.83999009  0.88560768  0.10616012  1
  O  O35  1  0.66000991  0.88560768  0.60616012  1
  O  O36  1  0.20458686  0.68505502  0.34104814  1
  O  O37  1  0.29541314  0.68505502  0.84104814  1
  O  O38  1  0.79541314  0.31494498  0.65895186  1
  O  O39  1  0.70458686  0.31494498  0.15895186  1
