# generated using pymatgen
data_Cd3(PO4)2
_symmetry_space_group_name_H-M   'P 1'
_cell_length_a   10.38499310
_cell_length_b   9.22253307
_cell_length_c   22.20085298
_cell_angle_alpha   75.43996460
_cell_angle_beta   90.00000000
_cell_angle_gamma   90.00000000
_symmetry_Int_Tables_number   1
_chemical_formula_structural   Cd3(PO4)2
_chemical_formula_sum   'Cd36 P24 O96'
_cell_volume   2058.02072789
_cell_formula_units_Z   12
loop_
 _symmetry_equiv_pos_site_id
 _symmetry_equiv_pos_as_xyz
  1  'x, y, z'
loop_
 _atom_site_type_symbol
 _atom_site_label
 _atom_site_symmetry_multiplicity
 _atom_site_fract_x
 _atom_site_fract_y
 _atom_site_fract_z
 _atom_site_occupancy
  Cd  Cd0  1  0.71118229  0.88497044  0.36308144  1
  Cd  Cd1  1  0.29570249  0.79856086  0.29609671  1
  Cd  Cd2  1  0.39507235  0.51667136  0.58385186  1
  Cd  Cd3  1  0.78910402  0.50900896  0.54326268  1
  Cd  Cd4  1  0.20429751  0.79856086  0.79609671  1
  Cd  Cd5  1  0.59270321  0.87848016  0.56020028  1
  Cd  Cd6  1  0.10319122  0.78788093  0.60721164  1
  Cd  Cd7  1  0.21089598  0.49099104  0.45673732  1
  Cd  Cd8  1  0.89523069  0.14430238  0.57679959  1
  Cd  Cd9  1  0.71089598  0.50900896  0.04326268  1
  Cd  Cd10  1  0.28881771  0.11502956  0.63691856  1
  Cd  Cd11  1  0.70429751  0.20143914  0.70390329  1
  Cd  Cd12  1  0.89687346  0.80465957  0.24715165  1
  Cd  Cd13  1  0.60319122  0.21211907  0.89278836  1
  Cd  Cd14  1  0.78881771  0.88497044  0.86308144  1
  Cd  Cd15  1  0.39687346  0.19534043  0.25284835  1
  Cd  Cd16  1  0.10312654  0.19534043  0.75284835  1
  Cd  Cd17  1  0.58828217  0.57140378  0.21995528  1
  Cd  Cd18  1  0.21118229  0.11502956  0.13691856  1
  Cd  Cd19  1  0.28910402  0.49099104  0.95673732  1
  Cd  Cd20  1  0.10476931  0.85569762  0.42320041  1
  Cd  Cd21  1  0.79570249  0.20143914  0.20390329  1
  Cd  Cd22  1  0.08828217  0.42859622  0.28004472  1
  Cd  Cd23  1  0.41171783  0.42859622  0.78004472  1
  Cd  Cd24  1  0.60476931  0.14430238  0.07679959  1
  Cd  Cd25  1  0.39523069  0.85569762  0.92320041  1
  Cd  Cd26  1  0.60492765  0.48332864  0.41614814  1
  Cd  Cd27  1  0.09270321  0.12151984  0.93979972  1
  Cd  Cd28  1  0.60312654  0.80465957  0.74715165  1
  Cd  Cd29  1  0.90729679  0.87848016  0.06020028  1
  Cd  Cd30  1  0.40729679  0.12151984  0.43979972  1
  Cd  Cd31  1  0.89507235  0.48332864  0.91614814  1
  Cd  Cd32  1  0.89680878  0.21211907  0.39278836  1
  Cd  Cd33  1  0.39680878  0.78788093  0.10721164  1
  Cd  Cd34  1  0.91171783  0.57140378  0.71995528  1
  Cd  Cd35  1  0.10492765  0.51667136  0.08385186  1
  P  P36  1  0.14408955  0.46929145  0.83135954  1
  P  P37  1  0.36350331  0.77904453  0.67131059  1
  P  P38  1  0.64408955  0.53070855  0.66864046  1
  P  P39  1  0.43480998  0.75951743  0.43934571  1
  P  P40  1  0.35591045  0.46929145  0.33135954  1
  P  P41  1  0.57281486  0.93027575  0.21993487  1
  P  P42  1  0.58082709  0.57114784  0.89455657  1
  P  P43  1  0.06519002  0.75951743  0.93934571  1
  P  P44  1  0.85250582  0.87312565  0.49873832  1
  P  P45  1  0.14749418  0.12687435  0.50126168  1
  P  P46  1  0.64749418  0.87312565  0.99873832  1
  P  P47  1  0.08082709  0.42885216  0.60544343  1
  P  P48  1  0.41917291  0.42885216  0.10544343  1
  P  P49  1  0.91917291  0.57114784  0.39455657  1
  P  P50  1  0.07281486  0.06972425  0.28006513  1
  P  P51  1  0.63649669  0.22095547  0.32868941  1
  P  P52  1  0.86350331  0.22095547  0.82868941  1
  P  P53  1  0.13649669  0.77904453  0.17131059  1
  P  P54  1  0.42718514  0.06972425  0.78006513  1
  P  P55  1  0.56519002  0.24048257  0.56065429  1
  P  P56  1  0.35250582  0.12687435  0.00126168  1
  P  P57  1  0.85591045  0.53070855  0.16864046  1
  P  P58  1  0.93480998  0.24048257  0.06065429  1
  P  P59  1  0.92718514  0.93027575  0.71993487  1
  O  O60  1  0.30696638  0.69240973  0.62658876  1
  O  O61  1  0.46686773  0.62264604  0.92882340  1
  O  O62  1  0.24944801  0.86733032  0.68991341  1
  O  O63  1  0.04457166  0.95779351  0.75820396  1
  O  O64  1  0.75055199  0.13266968  0.31008659  1
  O  O65  1  0.18427637  0.13681333  0.23651521  1
  O  O66  1  0.14324290  0.04007424  0.57127786  1
  O  O67  1  0.70115054  0.63320101  0.70711634  1
  O  O68  1  0.81634432  0.49702726  0.44213691  1
  O  O69  1  0.91930081  0.32464365  0.76890975  1
  O  O70  1  0.53313227  0.37735396  0.07117660  1
  O  O71  1  0.29884946  0.36679899  0.29288366  1
  O  O72  1  0.17643671  0.82436835  0.89528648  1
  O  O73  1  0.45542834  0.95779351  0.25820396  1
  O  O74  1  0.41930081  0.67535635  0.73109025  1
  O  O75  1  0.31572363  0.13681333  0.73651521  1
  O  O76  1  0.00989881  0.18121107  0.48267623  1
  O  O77  1  0.24566282  0.25364304  0.49452546  1
  O  O78  1  0.03550104  0.54561848  0.63979820  1
  O  O79  1  0.86010567  0.70877797  0.34903709  1
  O  O80  1  0.35675710  0.04007424  0.07127786  1
  O  O81  1  0.68365568  0.49702726  0.94213691  1
  O  O82  1  0.03253327  0.89318881  0.14106460  1
  O  O83  1  0.96746673  0.10681119  0.85893540  1
  O  O84  1  0.64324290  0.95992576  0.92872214  1
  O  O85  1  0.50989881  0.81878893  0.01732377  1
  O  O86  1  0.13989433  0.29122203  0.65096291  1
  O  O87  1  0.94565560  0.40901117  0.20645207  1
  O  O88  1  0.53253327  0.10681119  0.35893540  1
  O  O89  1  0.54209630  0.82345510  0.17861634  1
  O  O90  1  0.92431238  0.62418919  0.11018719  1
  O  O91  1  0.20080176  0.02887514  0.45987843  1
  O  O92  1  0.95790370  0.82345510  0.67861634  1
  O  O93  1  0.05434440  0.59098883  0.79354793  1
  O  O94  1  0.42431238  0.37581081  0.38981281  1
  O  O95  1  0.57568762  0.62418919  0.61018719  1
  O  O96  1  0.29919824  0.02887514  0.95987843  1
  O  O97  1  0.58069919  0.32464365  0.26890975  1
  O  O98  1  0.67643671  0.17563165  0.60471352  1
  O  O99  1  0.46449896  0.54561848  0.13979820  1
  O  O100  1  0.61237075  0.08590297  0.17956670  1
  O  O101  1  0.89202862  0.39387348  0.01962569  1
  O  O102  1  0.60797138  0.39387348  0.51962569  1
  O  O103  1  0.79919824  0.97112486  0.54012157  1
  O  O104  1  0.63989433  0.70877797  0.84903709  1
  O  O105  1  0.18365568  0.50297274  0.55786309  1
  O  O106  1  0.96836093  0.13032765  0.02154095  1
  O  O107  1  0.96686773  0.37735396  0.57117660  1
  O  O108  1  0.39202862  0.60612652  0.48037431  1
  O  O109  1  0.46836093  0.86967235  0.47845905  1
  O  O110  1  0.24040232  0.55299730  0.35121706  1
  O  O111  1  0.96449896  0.45438152  0.36020180  1
  O  O112  1  0.44565560  0.59098883  0.29354793  1
  O  O113  1  0.53163907  0.13032765  0.52154095  1
  O  O114  1  0.74566282  0.74635696  0.00547454  1
  O  O115  1  0.53550104  0.45438152  0.86020180  1
  O  O116  1  0.32356329  0.82436835  0.39528648  1
  O  O117  1  0.38762925  0.91409703  0.82043330  1
  O  O118  1  0.75959768  0.44700270  0.64878294  1
  O  O119  1  0.20115054  0.36679899  0.79288366  1
  O  O120  1  0.70080176  0.97112486  0.04012157  1
  O  O121  1  0.79884946  0.63320101  0.20711634  1
  O  O122  1  0.05413818  0.27216285  0.09770004  1
  O  O123  1  0.85675710  0.95992576  0.42872214  1
  O  O124  1  0.44586182  0.27216285  0.59770004  1
  O  O125  1  0.68427637  0.86318667  0.26348479  1
  O  O126  1  0.99010119  0.81878893  0.51732377  1
  O  O127  1  0.54457166  0.04220649  0.74179604  1
  O  O128  1  0.55413818  0.72783715  0.40229996  1
  O  O129  1  0.10797138  0.60612652  0.98037431  1
  O  O130  1  0.25959768  0.55299730  0.85121706  1
  O  O131  1  0.95542834  0.04220649  0.24179604  1
  O  O132  1  0.94586182  0.72783715  0.90229996  1
  O  O133  1  0.55434440  0.40901117  0.70645207  1
  O  O134  1  0.49010119  0.18121107  0.98267623  1
  O  O135  1  0.69303362  0.30759027  0.37341124  1
  O  O136  1  0.46746673  0.89318881  0.64106460  1
  O  O137  1  0.80696638  0.30759027  0.87341124  1
  O  O138  1  0.74944801  0.13266968  0.81008659  1
  O  O139  1  0.74040232  0.44700270  0.14878294  1
  O  O140  1  0.88762925  0.08590297  0.67956670  1
  O  O141  1  0.36010567  0.29122203  0.15096291  1
  O  O142  1  0.03313227  0.62264604  0.42882340  1
  O  O143  1  0.08069919  0.67535635  0.23109025  1
  O  O144  1  0.25433718  0.25364304  0.99452546  1
  O  O145  1  0.11237075  0.91409703  0.32043330  1
  O  O146  1  0.07568762  0.37581081  0.88981281  1
  O  O147  1  0.04209630  0.17654490  0.32138366  1
  O  O148  1  0.19303362  0.69240973  0.12658876  1
  O  O149  1  0.31634432  0.50297274  0.05786309  1
  O  O150  1  0.03163907  0.86967235  0.97845905  1
  O  O151  1  0.25055199  0.86733032  0.18991341  1
  O  O152  1  0.82356329  0.17563165  0.10471352  1
  O  O153  1  0.45790370  0.17654490  0.82138366  1
  O  O154  1  0.81572363  0.86318667  0.76348479  1
  O  O155  1  0.75433718  0.74635696  0.50547454  1
