# generated using pymatgen
data_Ba3(SnP2)2
_symmetry_space_group_name_H-M   'P 1'
_cell_length_a   19.67379265
_cell_length_b   7.80805064
_cell_length_c   7.98777568
_cell_angle_alpha   67.48098146
_cell_angle_beta   90.00000000
_cell_angle_gamma   90.00000000
_symmetry_Int_Tables_number   1
_chemical_formula_structural   Ba3(SnP2)2
_chemical_formula_sum   'Ba12 Sn8 P16'
_cell_volume   1133.47560285
_cell_formula_units_Z   4
loop_
 _symmetry_equiv_pos_site_id
 _symmetry_equiv_pos_as_xyz
  1  'x, y, z'
loop_
 _atom_site_type_symbol
 _atom_site_label
 _atom_site_symmetry_multiplicity
 _atom_site_fract_x
 _atom_site_fract_y
 _atom_site_fract_z
 _atom_site_occupancy
  Ba  Ba0  1  0.05926333  0.00852063  0.73722906  1
  Ba  Ba1  1  0.44073667  0.50852063  0.73722906  1
  Ba  Ba2  1  0.31739587  0.49289515  0.20913328  1
  Ba  Ba3  1  0.56586589  0.01221569  0.74007262  1
  Ba  Ba4  1  0.55926333  0.49147937  0.26277094  1
  Ba  Ba5  1  0.06586589  0.48778431  0.25992738  1
  Ba  Ba6  1  0.94073667  0.99147937  0.26277094  1
  Ba  Ba7  1  0.93413411  0.51221569  0.74007262  1
  Ba  Ba8  1  0.81739587  0.00710485  0.79086672  1
  Ba  Ba9  1  0.43413411  0.98778431  0.25992738  1
  Ba  Ba10  1  0.68260413  0.50710485  0.79086672  1
  Ba  Ba11  1  0.18260413  0.99289515  0.20913328  1
  Sn  Sn12  1  0.75770462  0.60669148  0.31555975  1
  Sn  Sn13  1  0.12240216  0.52231318  0.78974750  1
  Sn  Sn14  1  0.37759784  0.02231318  0.78974750  1
  Sn  Sn15  1  0.25770462  0.89330852  0.68444025  1
  Sn  Sn16  1  0.62240216  0.97768682  0.21025250  1
  Sn  Sn17  1  0.87759784  0.47768682  0.21025250  1
  Sn  Sn18  1  0.24229538  0.39330852  0.68444025  1
  Sn  Sn19  1  0.74229538  0.10669148  0.31555975  1
  P  P20  1  0.31783204  0.21342500  0.95477622  1
  P  P21  1  0.93485552  0.25862878  0.49146110  1
  P  P22  1  0.81783204  0.28657500  0.04522378  1
  P  P23  1  0.44567827  0.75479347  0.99661526  1
  P  P24  1  0.20291942  0.20841183  0.49378046  1
  P  P25  1  0.06514448  0.74137122  0.50853890  1
  P  P26  1  0.79708058  0.79158817  0.50621954  1
  P  P27  1  0.70291942  0.29158817  0.50621954  1
  P  P28  1  0.94567827  0.74520653  0.00338474  1
  P  P29  1  0.56514448  0.75862878  0.49146110  1
  P  P30  1  0.43485552  0.24137122  0.50853890  1
  P  P31  1  0.18216796  0.71342500  0.95477622  1
  P  P32  1  0.05432173  0.25479347  0.99661526  1
  P  P33  1  0.68216796  0.78657500  0.04522378  1
  P  P34  1  0.55432173  0.24520653  0.00338474  1
  P  P35  1  0.29708058  0.70841183  0.49378046  1
