# generated using pymatgen
data_Rb2PO3F
_symmetry_space_group_name_H-M   'P 1'
_cell_length_a   6.13063901
_cell_length_b   7.88448761
_cell_length_c   10.48250001
_cell_angle_alpha   90.00000000
_cell_angle_beta   90.00000000
_cell_angle_gamma   90.00000000
_symmetry_Int_Tables_number   1
_chemical_formula_structural   Rb2PO3F
_chemical_formula_sum   'Rb8 P4 O12 F4'
_cell_volume   506.69205072
_cell_formula_units_Z   4
loop_
 _symmetry_equiv_pos_site_id
 _symmetry_equiv_pos_as_xyz
  1  'x, y, z'
loop_
 _atom_site_type_symbol
 _atom_site_label
 _atom_site_symmetry_multiplicity
 _atom_site_fract_x
 _atom_site_fract_y
 _atom_site_fract_z
 _atom_site_occupancy
  Rb  Rb0  1  0.25000000  0.17154816  0.92204424  1
  Rb  Rb1  1  0.75000000  0.82845184  0.07795576  1
  Rb  Rb2  1  0.25000000  0.67154816  0.57795576  1
  Rb  Rb3  1  0.75000000  0.32845184  0.42204424  1
  Rb  Rb4  1  0.25000000  0.00655974  0.28402667  1
  Rb  Rb5  1  0.75000000  0.99344026  0.71597333  1
  Rb  Rb6  1  0.25000000  0.50655974  0.21597333  1
  Rb  Rb7  1  0.75000000  0.49344026  0.78402667  1
  P  P8  1  0.25000000  0.24137292  0.58593461  1
  P  P9  1  0.75000000  0.75862708  0.41406539  1
  P  P10  1  0.25000000  0.74137292  0.91406539  1
  P  P11  1  0.75000000  0.25862708  0.08593461  1
  O  O12  1  0.75000000  0.68895588  0.54811246  1
  O  O13  1  0.25000000  0.31104412  0.45188754  1
  O  O14  1  0.25000000  0.81104412  0.04811246  1
  O  O15  1  0.75000000  0.18895588  0.95188754  1
  O  O16  1  0.54274577  0.72900198  0.34046834  1
  O  O17  1  0.04274577  0.27099802  0.65953166  1
  O  O18  1  0.95725423  0.22900198  0.15953166  1
  O  O19  1  0.45725423  0.77099802  0.84046834  1
  O  O20  1  0.45725423  0.27099802  0.65953166  1
  O  O21  1  0.95725423  0.72900198  0.34046834  1
  O  O22  1  0.04274577  0.77099802  0.84046834  1
  O  O23  1  0.54274577  0.22900198  0.15953166  1
  F  F24  1  0.75000000  0.46618682  0.06393793  1
  F  F25  1  0.25000000  0.53381318  0.93606207  1
  F  F26  1  0.25000000  0.03381318  0.56393793  1
  F  F27  1  0.75000000  0.96618682  0.43606207  1
