# generated using pymatgen
data_La4Te3N2
_symmetry_space_group_name_H-M   'P 1'
_cell_length_a   7.51634334
_cell_length_b   11.69897623
_cell_length_c   11.87870996
_cell_angle_alpha   90.00000000
_cell_angle_beta   90.00000000
_cell_angle_gamma   90.00000000
_symmetry_Int_Tables_number   1
_chemical_formula_structural   La4Te3N2
_chemical_formula_sum   'La16 Te12 N8'
_cell_volume   1044.53680444
_cell_formula_units_Z   4
loop_
 _symmetry_equiv_pos_site_id
 _symmetry_equiv_pos_as_xyz
  1  'x, y, z'
loop_
 _atom_site_type_symbol
 _atom_site_label
 _atom_site_symmetry_multiplicity
 _atom_site_fract_x
 _atom_site_fract_y
 _atom_site_fract_z
 _atom_site_occupancy
  La  La0  1  0.64740704  0.10902168  0.95023064  1
  La  La1  1  0.85259296  0.60902168  0.04976936  1
  La  La2  1  0.22439210  0.03049935  0.75000000  1
  La  La3  1  0.27560790  0.53049935  0.25000000  1
  La  La4  1  0.77560790  0.96950065  0.25000000  1
  La  La5  1  0.35259296  0.89097832  0.45023064  1
  La  La6  1  0.35259296  0.89097832  0.04976936  1
  La  La7  1  0.91127928  0.34234308  0.25000000  1
  La  La8  1  0.72439210  0.46950065  0.75000000  1
  La  La9  1  0.14740704  0.39097832  0.95023064  1
  La  La10  1  0.08872072  0.65765692  0.75000000  1
  La  La11  1  0.58872072  0.84234308  0.75000000  1
  La  La12  1  0.85259296  0.60902168  0.45023064  1
  La  La13  1  0.64740704  0.10902168  0.54976936  1
  La  La14  1  0.41127928  0.15765692  0.25000000  1
  La  La15  1  0.14740704  0.39097832  0.54976936  1
  Te  Te16  1  0.93252434  0.86331392  0.57812615  1
  Te  Te17  1  0.06747566  0.13668608  0.07812615  1
  Te  Te18  1  0.43252434  0.63668608  0.57812615  1
  Te  Te19  1  0.41804157  0.27112615  0.75000000  1
  Te  Te20  1  0.56747566  0.36331392  0.42187385  1
  Te  Te21  1  0.93252434  0.86331392  0.92187385  1
  Te  Te22  1  0.08195843  0.77112615  0.25000000  1
  Te  Te23  1  0.56747566  0.36331392  0.07812615  1
  Te  Te24  1  0.06747566  0.13668608  0.42187385  1
  Te  Te25  1  0.58195843  0.72887385  0.25000000  1
  Te  Te26  1  0.43252434  0.63668608  0.92187385  1
  Te  Te27  1  0.91804157  0.22887385  0.75000000  1
  N  N28  1  0.05467473  0.46698614  0.37823629  1
  N  N29  1  0.55467473  0.03301386  0.12176371  1
  N  N30  1  0.44532527  0.96698614  0.62176371  1
  N  N31  1  0.94532527  0.53301386  0.62176371  1
  N  N32  1  0.44532527  0.96698614  0.87823629  1
  N  N33  1  0.94532527  0.53301386  0.87823629  1
  N  N34  1  0.55467473  0.03301386  0.37823629  1
  N  N35  1  0.05467473  0.46698614  0.12176371  1
