# generated using pymatgen
data_Cs3CdI5
_symmetry_space_group_name_H-M   'P 1'
_cell_length_a   10.13395227
_cell_length_b   11.97089401
_cell_length_c   15.05481035
_cell_angle_alpha   90.00000000
_cell_angle_beta   90.00000000
_cell_angle_gamma   90.00000000
_symmetry_Int_Tables_number   1
_chemical_formula_structural   Cs3CdI5
_chemical_formula_sum   'Cs12 Cd4 I20'
_cell_volume   1826.33620676
_cell_formula_units_Z   4
loop_
 _symmetry_equiv_pos_site_id
 _symmetry_equiv_pos_as_xyz
  1  'x, y, z'
loop_
 _atom_site_type_symbol
 _atom_site_label
 _atom_site_symmetry_multiplicity
 _atom_site_fract_x
 _atom_site_fract_y
 _atom_site_fract_z
 _atom_site_occupancy
  Cs  Cs0  1  0.57844486  0.98272855  0.32950689  1
  Cs  Cs1  1  0.92155514  0.48272855  0.82950689  1
  Cs  Cs2  1  0.57800392  0.75000000  0.04995178  1
  Cs  Cs3  1  0.92155514  0.01727145  0.82950689  1
  Cs  Cs4  1  0.42155514  0.01727145  0.67049311  1
  Cs  Cs5  1  0.07844486  0.98272855  0.17049311  1
  Cs  Cs6  1  0.07800392  0.75000000  0.45004822  1
  Cs  Cs7  1  0.57844486  0.51727145  0.32950689  1
  Cs  Cs8  1  0.07844486  0.51727145  0.17049311  1
  Cs  Cs9  1  0.42199608  0.25000000  0.95004822  1
  Cs  Cs10  1  0.92199608  0.25000000  0.54995178  1
  Cs  Cs11  1  0.42155514  0.48272855  0.67049311  1
  Cd  Cd12  1  0.68891991  0.75000000  0.60821122  1
  Cd  Cd13  1  0.18891991  0.75000000  0.89178878  1
  Cd  Cd14  1  0.31108009  0.25000000  0.39178878  1
  Cd  Cd15  1  0.81108009  0.25000000  0.10821122  1
  I  I16  1  0.95561710  0.75000000  0.99318782  1
  I  I17  1  0.04438290  0.25000000  0.00681218  1
  I  I18  1  0.45561710  0.75000000  0.50681218  1
  I  I19  1  0.62936654  0.75000000  0.78923364  1
  I  I20  1  0.54438290  0.25000000  0.49318782  1
  I  I21  1  0.67509790  0.25000000  0.76413667  1
  I  I22  1  0.12936654  0.75000000  0.71076636  1
  I  I23  1  0.82490210  0.75000000  0.26413667  1
  I  I24  1  0.31301269  0.55052427  0.93819054  1
  I  I25  1  0.17509790  0.25000000  0.73586333  1
  I  I26  1  0.81301269  0.94947573  0.56180946  1
  I  I27  1  0.81301269  0.55052427  0.56180946  1
  I  I28  1  0.31301269  0.94947573  0.93819054  1
  I  I29  1  0.32490210  0.75000000  0.23586333  1
  I  I30  1  0.68698731  0.44947573  0.06180946  1
  I  I31  1  0.18698731  0.05052427  0.43819054  1
  I  I32  1  0.18698731  0.44947573  0.43819054  1
  I  I33  1  0.87063346  0.25000000  0.28923364  1
  I  I34  1  0.37063346  0.25000000  0.21076636  1
  I  I35  1  0.68698731  0.05052427  0.06180946  1
