# generated using pymatgen
data_CsHg2Br5
_symmetry_space_group_name_H-M   'P 1'
_cell_length_a   6.37668189
_cell_length_b   8.55116123
_cell_length_c   11.18981071
_cell_angle_alpha   106.05811093
_cell_angle_beta   90.00000000
_cell_angle_gamma   90.00000000
_symmetry_Int_Tables_number   1
_chemical_formula_structural   CsHg2Br5
_chemical_formula_sum   'Cs2 Hg4 Br10'
_cell_volume   586.35101165
_cell_formula_units_Z   2
loop_
 _symmetry_equiv_pos_site_id
 _symmetry_equiv_pos_as_xyz
  1  'x, y, z'
loop_
 _atom_site_type_symbol
 _atom_site_label
 _atom_site_symmetry_multiplicity
 _atom_site_fract_x
 _atom_site_fract_y
 _atom_site_fract_z
 _atom_site_occupancy
  Cs  Cs0  1  0.25000000  0.45922507  0.74298240  1
  Cs  Cs1  1  0.75000000  0.54077493  0.25701760  1
  Hg  Hg2  1  0.75000000  0.03535128  0.86032995  1
  Hg  Hg3  1  0.75000000  0.12616809  0.43264660  1
  Hg  Hg4  1  0.25000000  0.96464872  0.13967005  1
  Hg  Hg5  1  0.25000000  0.87383191  0.56735340  1
  Br  Br6  1  0.25000000  0.02914478  0.79945599  1
  Br  Br7  1  0.75000000  0.97085522  0.20054401  1
  Br  Br8  1  0.25000000  0.58239060  0.43676371  1
  Br  Br9  1  0.75000000  0.74805942  0.86372427  1
  Br  Br10  1  0.75000000  0.41760940  0.56323629  1
  Br  Br11  1  0.75000000  0.33495269  0.90443592  1
  Br  Br12  1  0.25000000  0.25194058  0.13627573  1
  Br  Br13  1  0.25000000  0.09737086  0.43632024  1
  Br  Br14  1  0.25000000  0.66504731  0.09556408  1
  Br  Br15  1  0.75000000  0.90263014  0.56367976  1
