# generated using pymatgen
data_Ca5B3O9F
_symmetry_space_group_name_H-M   'P 1'
_cell_length_a   9.00706173
_cell_length_b   9.00706173
_cell_length_c   3.53629464
_cell_angle_alpha   85.20363237
_cell_angle_beta   85.20363237
_cell_angle_gamma   126.24321597
_symmetry_Int_Tables_number   1
_chemical_formula_structural   Ca5B3O9F
_chemical_formula_sum   'Ca5 B3 O9 F1'
_cell_volume   227.38890491
_cell_formula_units_Z   1
loop_
 _symmetry_equiv_pos_site_id
 _symmetry_equiv_pos_as_xyz
  1  'x, y, z'
loop_
 _atom_site_type_symbol
 _atom_site_label
 _atom_site_symmetry_multiplicity
 _atom_site_fract_x
 _atom_site_fract_y
 _atom_site_fract_z
 _atom_site_occupancy
  Ca  Ca0  1  0.73834491  0.38251792  0.99501421  1
  Ca  Ca1  1  0.06550881  0.30093665  0.65133958  1
  Ca  Ca2  1  0.30093665  0.06550881  0.65133958  1
  Ca  Ca3  1  0.38251792  0.73834491  0.99501421  1
  Ca  Ca4  1  0.79560026  0.79560026  0.35952328  1
  B  B5  1  0.68042261  0.07270966  0.40797528  1
  B  B6  1  0.44052552  0.44052552  0.03486691  1
  B  B7  1  0.07270966  0.68042261  0.40797528  1
  O  O8  1  0.61226040  0.61226040  0.94682562  1
  O  O9  1  0.59411729  0.88459152  0.42036822  1
  O  O10  1  0.27942321  0.42781028  0.07978275  1
  O  O11  1  0.85840509  0.20457150  0.20496183  1
  O  O12  1  0.42781028  0.27942321  0.07978275  1
  O  O13  1  0.20457150  0.85840509  0.20496183  1
  O  O14  1  0.59225252  0.13635729  0.59434132  1
  O  O15  1  0.13635729  0.59225252  0.59434132  1
  O  O16  1  0.88459152  0.59411729  0.42036822  1
  F  F17  1  0.00004459  0.00004459  0.75361583  1
