# generated using pymatgen
data_Nd2Ti4O11
_symmetry_space_group_name_H-M   'P 1'
_cell_length_a   7.25229843
_cell_length_b   7.25229843
_cell_length_c   12.75546689
_cell_angle_alpha   72.42801720
_cell_angle_beta   72.42801720
_cell_angle_gamma   41.13881088
_symmetry_Int_Tables_number   1
_chemical_formula_structural   Nd2Ti4O11
_chemical_formula_sum   'Nd4 Ti8 O22'
_cell_volume   417.78855113
_cell_formula_units_Z   2
loop_
 _symmetry_equiv_pos_site_id
 _symmetry_equiv_pos_as_xyz
  1  'x, y, z'
loop_
 _atom_site_type_symbol
 _atom_site_label
 _atom_site_symmetry_multiplicity
 _atom_site_fract_x
 _atom_site_fract_y
 _atom_site_fract_z
 _atom_site_occupancy
  Nd  Nd0  1  0.20308535  0.19229831  0.90602859  1
  Nd  Nd1  1  0.19229831  0.20308535  0.40602859  1
  Nd  Nd2  1  0.79691465  0.80770169  0.09397141  1
  Nd  Nd3  1  0.80770169  0.79691465  0.59397141  1
  Ti  Ti4  1  0.94787261  0.83248178  0.80940618  1
  Ti  Ti5  1  0.58293544  0.47830919  0.59739200  1
  Ti  Ti6  1  0.16751822  0.05212739  0.69059382  1
  Ti  Ti7  1  0.05212739  0.16751822  0.19059382  1
  Ti  Ti8  1  0.47830919  0.58293544  0.09739200  1
  Ti  Ti9  1  0.41706456  0.52169081  0.40260800  1
  Ti  Ti10  1  0.83248178  0.94787261  0.30940618  1
  Ti  Ti11  1  0.52169081  0.41706456  0.90260800  1
  O  O12  1  0.94534001  0.61502154  0.77712722  1
  O  O13  1  0.38708520  0.92921860  0.09666797  1
  O  O14  1  0.58128915  0.28275655  0.05604261  1
  O  O15  1  0.61502154  0.94534001  0.27712722  1
  O  O16  1  0.81517700  0.09506471  0.66804948  1
  O  O17  1  0.41892460  0.85899656  0.56127121  1
  O  O18  1  0.41871085  0.71724345  0.94395739  1
  O  O19  1  0.92921860  0.38708520  0.59666797  1
  O  O20  1  0.18482300  0.90493529  0.33195052  1
  O  O21  1  0.34734878  0.65265122  0.75000000  1
  O  O22  1  0.58107540  0.14100344  0.43872879  1
  O  O23  1  0.14100344  0.58107540  0.93872879  1
  O  O24  1  0.61291480  0.07078140  0.90333203  1
  O  O25  1  0.38497846  0.05465999  0.72287278  1
  O  O26  1  0.09506471  0.81517700  0.16804948  1
  O  O27  1  0.07078140  0.61291480  0.40333203  1
  O  O28  1  0.71724345  0.41871085  0.44395739  1
  O  O29  1  0.85899656  0.41892460  0.06127121  1
  O  O30  1  0.28275655  0.58128915  0.55604261  1
  O  O31  1  0.65265122  0.34734878  0.25000000  1
  O  O32  1  0.90493529  0.18482300  0.83195052  1
  O  O33  1  0.05465999  0.38497846  0.22287278  1
