# generated using pymatgen
data_Na5Mn3F14
_symmetry_space_group_name_H-M   'P 1'
_cell_length_a   10.59185738
_cell_length_b   10.85312579
_cell_length_c   10.33182390
_cell_angle_alpha   90.00000000
_cell_angle_beta   90.00000000
_cell_angle_gamma   90.00000000
_symmetry_Int_Tables_number   1
_chemical_formula_structural   Na5Mn3F14
_chemical_formula_sum   'Na20 Mn12 F56'
_cell_volume   1187.69234190
_cell_formula_units_Z   4
loop_
 _symmetry_equiv_pos_site_id
 _symmetry_equiv_pos_as_xyz
  1  'x, y, z'
loop_
 _atom_site_type_symbol
 _atom_site_label
 _atom_site_symmetry_multiplicity
 _atom_site_fract_x
 _atom_site_fract_y
 _atom_site_fract_z
 _atom_site_occupancy
  Na  Na0  1  0.12012685  0.47943781  0.90522023  1
  Na  Na1  1  0.21139129  0.29833660  0.63082829  1
  Na  Na2  1  0.03393410  0.78346997  0.83154540  1
  Na  Na3  1  0.15952897  0.87837144  0.14316796  1
  Na  Na4  1  0.21180761  0.53882588  0.22302378  1
  Na  Na5  1  0.28819239  0.96117412  0.72302378  1
  Na  Na6  1  0.34047103  0.62162856  0.64316696  1
  Na  Na7  1  0.46606590  0.71653003  0.33154540  1
  Na  Na8  1  0.28860871  0.20166340  0.13082829  1
  Na  Na9  1  0.37987315  0.02056219  0.40522023  1
  Na  Na10  1  0.62012685  0.52056219  0.59477977  1
  Na  Na11  1  0.71139129  0.70166340  0.86917171  1
  Na  Na12  1  0.53393410  0.21653003  0.66845460  1
  Na  Na13  1  0.71180761  0.46117412  0.27697622  1
  Na  Na14  1  0.65952897  0.12162856  0.35683304  1
  Na  Na15  1  0.84047103  0.37837144  0.85683304  1
  Na  Na16  1  0.78819239  0.03882588  0.77697622  1
  Na  Na17  1  0.96606590  0.28346997  0.16845460  1
  Na  Na18  1  0.78860871  0.79833660  0.36917171  1
  Na  Na19  1  0.87987315  0.97943781  0.09477977  1
  Mn  Mn20  1  0.95391847  0.52291320  0.56623301  1
  Mn  Mn21  1  0.13671449  0.75432823  0.47971895  1
  Mn  Mn22  1  0.93282270  0.65499633  0.10858518  1
  Mn  Mn23  1  0.56717730  0.84500367  0.60858518  1
  Mn  Mn24  1  0.36328551  0.74567177  0.97971895  1
  Mn  Mn25  1  0.54608153  0.97708680  0.06623301  1
  Mn  Mn26  1  0.45391847  0.47708680  0.93376699  1
  Mn  Mn27  1  0.63671449  0.24567177  0.02028105  1
  Mn  Mn28  1  0.43282270  0.34500367  0.39141482  1
  Mn  Mn29  1  0.06717730  0.15499633  0.89141482  1
  Mn  Mn30  1  0.86328551  0.25432823  0.52028105  1
  Mn  Mn31  1  0.04608153  0.02291320  0.43376699  1
  F  F32  1  0.99093103  0.50258681  0.18697293  1
  F  F33  1  0.88414884  0.02372548  0.36172871  1
  F  F34  1  0.09275560  0.05251816  0.06227790  1
  F  F35  1  0.12190239  0.28746128  0.01147120  1
  F  F36  1  0.09495391  0.14491356  0.31926836  1
  F  F37  1  0.19257370  0.03635786  0.53386832  1
  F  F38  1  0.00301534  0.36082408  0.48741016  1
  F  F39  1  0.18104389  0.77877113  0.65877994  1
  F  F40  1  0.97554867  0.13192697  0.58733676  1
  F  F41  1  0.03662462  0.31644370  0.77582757  1
  F  F42  1  0.26513922  0.65010280  0.43220651  1
  F  F43  1  0.19076999  0.88209649  0.35411947  1
  F  F44  1  0.40140289  0.82750193  0.54580674  1
  F  F45  1  0.22299297  0.14291296  0.80763833  1
  F  F46  1  0.27700703  0.35708704  0.30763833  1
  F  F47  1  0.09859711  0.67249807  0.04580674  1
  F  F48  1  0.23486078  0.84989720  0.93220651  1
  F  F49  1  0.30923001  0.61790351  0.85411947  1
  F  F50  1  0.46337538  0.18355630  0.27582757  1
  F  F51  1  0.52445133  0.36807303  0.08733676  1
  F  F52  1  0.31895611  0.72122887  0.15877994  1
  F  F53  1  0.49698466  0.13917592  0.98741016  1
  F  F54  1  0.30742630  0.46364214  0.03386832  1
  F  F55  1  0.40504609  0.35508644  0.81926836  1
  F  F56  1  0.37809761  0.21253872  0.51147120  1
  F  F57  1  0.40724440  0.44748184  0.56227790  1
  F  F58  1  0.50906897  0.99741319  0.68697293  1
  F  F59  1  0.61585116  0.47627452  0.86172871  1
  F  F60  1  0.49093103  0.49741319  0.31302707  1
  F  F61  1  0.38414884  0.97627452  0.13827129  1
  F  F62  1  0.62190239  0.71253872  0.48852880  1
  F  F63  1  0.59275560  0.94748184  0.43772210  1
  F  F64  1  0.59495391  0.85508744  0.18073164  1
  F  F65  1  0.50301534  0.63917592  0.01258984  1
  F  F66  1  0.69257370  0.96364214  0.96613168  1
  F  F67  1  0.68104389  0.22122887  0.84122006  1
  F  F68  1  0.53662462  0.68355630  0.72417243  1
  F  F69  1  0.47554867  0.86807303  0.91266324  1
  F  F70  1  0.76513922  0.34989720  0.06779349  1
  F  F71  1  0.69076999  0.11790351  0.14588053  1
  F  F72  1  0.90140289  0.17249807  0.95419326  1
  F  F73  1  0.72299297  0.85708704  0.69236167  1
  F  F74  1  0.77700703  0.64291296  0.19236167  1
  F  F75  1  0.59859711  0.32750193  0.45419326  1
  F  F76  1  0.73486078  0.15010280  0.56779349  1
  F  F77  1  0.80923001  0.38209649  0.64588053  1
  F  F78  1  0.02445133  0.63192697  0.41266324  1
  F  F79  1  0.96337538  0.81644370  0.22417243  1
  F  F80  1  0.81895611  0.27877113  0.34122006  1
  F  F81  1  0.80742630  0.53635786  0.46613168  1
  F  F82  1  0.99698466  0.86082408  0.51258984  1
  F  F83  1  0.90504609  0.64491256  0.68073164  1
  F  F84  1  0.90724440  0.55251816  0.93772210  1
  F  F85  1  0.87809761  0.78746128  0.98852880  1
  F  F86  1  0.11585116  0.52372548  0.63827129  1
  F  F87  1  0.00906897  0.00258681  0.81302707  1
