# generated using pymatgen
data_K2Sn(GeO3)3
_symmetry_space_group_name_H-M   'P 1'
_cell_length_a   12.14325225
_cell_length_b   12.14325225
_cell_length_c   10.74229300
_cell_angle_alpha   90.00000000
_cell_angle_beta   90.00000000
_cell_angle_gamma   120.00000134
_symmetry_Int_Tables_number   1
_chemical_formula_structural   K2Sn(GeO3)3
_chemical_formula_sum   'K12 Sn6 Ge18 O54'
_cell_volume   1371.82164991
_cell_formula_units_Z   6
loop_
 _symmetry_equiv_pos_site_id
 _symmetry_equiv_pos_as_xyz
  1  'x, y, z'
loop_
 _atom_site_type_symbol
 _atom_site_label
 _atom_site_symmetry_multiplicity
 _atom_site_fract_x
 _atom_site_fract_y
 _atom_site_fract_z
 _atom_site_occupancy
  K  K0  1  0.34611700  0.34641000  0.99141700  1
  K  K1  1  0.99970700  0.34611700  0.00858300  1
  K  K2  1  0.99970700  0.65359000  0.50858300  1
  K  K3  1  0.65359000  0.99970700  0.99141700  1
  K  K4  1  0.00029300  0.34641000  0.49141700  1
  K  K5  1  0.65388300  0.65359000  0.00858300  1
  K  K6  1  0.34641000  0.34611700  0.50858300  1
  K  K7  1  0.00029300  0.65388300  0.99141700  1
  K  K8  1  0.34641000  0.00029300  0.00858300  1
  K  K9  1  0.65388300  0.00029300  0.50858300  1
  K  K10  1  0.34611700  0.99970700  0.49141700  1
  K  K11  1  0.65359000  0.65388300  0.49141700  1
  Sn  Sn12  1  0.33333300  0.66666700  0.49342400  1
  Sn  Sn13  1  0.66666700  0.33333300  0.50657600  1
  Sn  Sn14  1  0.66666700  0.33333300  0.00657600  1
  Sn  Sn15  1  0.33333300  0.66666700  0.99342400  1
  Sn  Sn16  1  0.00000000  0.00000000  0.50000000  1
  Sn  Sn17  1  0.00000000  0.00000000  0.00000000  1
  Ge  Ge18  1  0.54897100  0.83166700  0.23686200  1
  Ge  Ge19  1  0.81879000  0.00000000  0.75000000  1
  Ge  Ge20  1  0.18121000  0.18121000  0.75000000  1
  Ge  Ge21  1  0.83166700  0.54897100  0.26313800  1
  Ge  Ge22  1  0.28269600  0.83166700  0.73686200  1
  Ge  Ge23  1  0.16833300  0.71730400  0.23686200  1
  Ge  Ge24  1  0.71730400  0.16833300  0.26313800  1
  Ge  Ge25  1  0.81879000  0.81879000  0.25000000  1
  Ge  Ge26  1  0.00000000  0.18121000  0.25000000  1
  Ge  Ge27  1  0.16833300  0.45102900  0.73686200  1
  Ge  Ge28  1  0.28269600  0.45102900  0.23686200  1
  Ge  Ge29  1  0.54897100  0.71730400  0.73686200  1
  Ge  Ge30  1  0.83166700  0.28269600  0.76313800  1
  Ge  Ge31  1  0.00000000  0.81879000  0.75000000  1
  Ge  Ge32  1  0.45102900  0.16833300  0.76313800  1
  Ge  Ge33  1  0.45102900  0.28269600  0.26313800  1
  Ge  Ge34  1  0.71730400  0.54897100  0.76313800  1
  Ge  Ge35  1  0.18121000  0.00000000  0.25000000  1
  O  O36  1  0.66610400  0.79051600  0.19083700  1
  O  O37  1  0.91177300  0.07111000  0.61676000  1
  O  O38  1  0.81740100  0.36829500  0.88902500  1
  O  O39  1  0.50336900  0.27326600  0.11377700  1
  O  O40  1  0.27326600  0.76989700  0.88622400  1
  O  O41  1  0.79051600  0.12441200  0.80916300  1
  O  O42  1  0.00000000  0.63267500  0.25000000  1
  O  O43  1  0.84066400  0.91177300  0.38324000  1
  O  O44  1  0.63170500  0.18259900  0.38902500  1
  O  O45  1  0.55089400  0.18259900  0.88902500  1
  O  O46  1  0.18259900  0.63170500  0.11097500  1
  O  O47  1  0.33389600  0.20948400  0.80916300  1
  O  O48  1  0.87558800  0.20948400  0.30916300  1
  O  O49  1  0.72673400  0.23010300  0.11377700  1
  O  O50  1  0.15933600  0.07111000  0.11676000  1
  O  O51  1  0.18259900  0.55089400  0.61097500  1
  O  O52  1  0.23010300  0.72673400  0.38622300  1
  O  O53  1  0.92889000  0.84066400  0.61676000  1
  O  O54  1  0.66610400  0.87558800  0.69083700  1
  O  O55  1  0.36732500  0.00000000  0.75000000  1
  O  O56  1  0.84066400  0.92889000  0.88324000  1
  O  O57  1  0.91177300  0.84066400  0.11676000  1
  O  O58  1  0.63170500  0.44910600  0.88902500  1
  O  O59  1  0.36829500  0.81740100  0.61097500  1
  O  O60  1  0.63267500  0.63267500  0.75000000  1
  O  O61  1  0.08822700  0.15933600  0.88324000  1
  O  O62  1  0.92889000  0.08822700  0.11676000  1
  O  O63  1  0.63267500  0.00000000  0.25000000  1
  O  O64  1  0.49663100  0.72673400  0.88622400  1
  O  O65  1  0.36732500  0.36732500  0.25000000  1
  O  O66  1  0.76989700  0.27326600  0.61377600  1
  O  O67  1  0.27326600  0.50336900  0.38622300  1
  O  O68  1  0.12441200  0.79051600  0.69083700  1
  O  O69  1  0.33389600  0.12441200  0.30916300  1
  O  O70  1  0.36829500  0.55089400  0.11097500  1
  O  O71  1  0.79051600  0.66610400  0.30916300  1
  O  O72  1  0.12441200  0.33389600  0.19083700  1
  O  O73  1  0.87558800  0.66610400  0.80916300  1
  O  O74  1  0.76989700  0.49663100  0.11377700  1
  O  O75  1  0.81740100  0.44910600  0.38902500  1
  O  O76  1  0.44910600  0.81740100  0.11097500  1
  O  O77  1  0.15933600  0.08822700  0.61676000  1
  O  O78  1  0.55089400  0.36829500  0.38902500  1
  O  O79  1  0.20948400  0.33389600  0.69083700  1
  O  O80  1  0.72673400  0.49663100  0.61377600  1
  O  O81  1  0.00000000  0.36732500  0.75000000  1
  O  O82  1  0.08822700  0.92889000  0.38324000  1
  O  O83  1  0.50336900  0.23010300  0.61377600  1
  O  O84  1  0.07111000  0.91177300  0.88324000  1
  O  O85  1  0.44910600  0.63170500  0.61097500  1
  O  O86  1  0.07111000  0.15933600  0.38324000  1
  O  O87  1  0.49663100  0.76989700  0.38622300  1
  O  O88  1  0.20948400  0.87558800  0.19083700  1
  O  O89  1  0.23010300  0.50336900  0.88622400  1
