# generated using pymatgen
data_Rb2TaCuSe4
_symmetry_space_group_name_H-M   'P 1'
_cell_length_a   14.49023747
_cell_length_b   12.93446399
_cell_length_c   7.71366873
_cell_angle_alpha   85.16063209
_cell_angle_beta   62.80432411
_cell_angle_gamma   32.03504380
_symmetry_Int_Tables_number   1
_chemical_formula_structural   Rb2TaCuSe4
_chemical_formula_sum   'Rb4 Ta2 Cu2 Se8'
_cell_volume   522.74465719
_cell_formula_units_Z   2
loop_
 _symmetry_equiv_pos_site_id
 _symmetry_equiv_pos_as_xyz
  1  'x, y, z'
loop_
 _atom_site_type_symbol
 _atom_site_label
 _atom_site_symmetry_multiplicity
 _atom_site_fract_x
 _atom_site_fract_y
 _atom_site_fract_z
 _atom_site_occupancy
  Rb  Rb0  1  0.55968600  0.54644000  0.19589400  1
  Rb  Rb1  1  0.18964300  0.20360200  0.55441400  1
  Rb  Rb2  1  0.44994400  0.44058600  0.80621800  1
  Rb  Rb3  1  0.79823000  0.80607600  0.44891900  1
  Ta  Ta4  1  0.36939000  0.38282300  0.38136100  1
  Ta  Ta5  1  0.63202000  0.62002000  0.61601400  1
  Cu  Cu6  1  0.87507800  0.87880700  0.87455500  1
  Cu  Cu7  1  0.11665000  0.13246500  0.13420300  1
  Se  Se8  1  0.76537600  0.09169800  0.17806300  1
  Se  Se9  1  0.47070300  0.17213100  0.08702400  1
  Se  Se10  1  0.17556400  0.46434300  0.77735500  1
  Se  Se11  1  0.08652100  0.77622800  0.46173700  1
  Se  Se12  1  0.90644900  0.23183600  0.54374500  1
  Se  Se13  1  0.83207100  0.53075400  0.22678700  1
  Se  Se14  1  0.54308300  0.81799500  0.90837700  1
  Se  Se15  1  0.21992000  0.92091800  0.83060100  1
