# generated using pymatgen
data_P4S3I2
_symmetry_space_group_name_H-M   'P 1'
_cell_length_a   6.82686974
_cell_length_b   9.54797158
_cell_length_c   16.42339228
_cell_angle_alpha   90.00000000
_cell_angle_beta   90.00000000
_cell_angle_gamma   90.00000000
_symmetry_Int_Tables_number   1
_chemical_formula_structural   P4S3I2
_chemical_formula_sum   'P16 S12 I8'
_cell_volume   1070.52200876
_cell_formula_units_Z   4
loop_
 _symmetry_equiv_pos_site_id
 _symmetry_equiv_pos_as_xyz
  1  'x, y, z'
loop_
 _atom_site_type_symbol
 _atom_site_label
 _atom_site_symmetry_multiplicity
 _atom_site_fract_x
 _atom_site_fract_y
 _atom_site_fract_z
 _atom_site_occupancy
  P  P0  1  0.45282736  0.48059150  0.35116863  1
  P  P1  1  0.04717264  0.98059150  0.35116863  1
  P  P2  1  0.80790870  0.13354582  0.75000000  1
  P  P3  1  0.30790870  0.36645418  0.25000000  1
  P  P4  1  0.95282736  0.01940850  0.64883137  1
  P  P5  1  0.24500932  0.24909887  0.75000000  1
  P  P6  1  0.54717264  0.51940850  0.64883137  1
  P  P7  1  0.54717264  0.51940850  0.85116863  1
  P  P8  1  0.74500932  0.25090113  0.25000000  1
  P  P9  1  0.25499068  0.74909887  0.75000000  1
  P  P10  1  0.95282736  0.01940850  0.85116863  1
  P  P11  1  0.45282736  0.48059150  0.14883137  1
  P  P12  1  0.75499068  0.75090113  0.25000000  1
  P  P13  1  0.69209130  0.63354582  0.75000000  1
  P  P14  1  0.19209130  0.86645418  0.25000000  1
  P  P15  1  0.04717264  0.98059150  0.14883137  1
  S  S16  1  0.76378749  0.88829807  0.14881792  1
  S  S17  1  0.73621251  0.38829807  0.14881792  1
  S  S18  1  0.23621251  0.11170193  0.85118208  1
  S  S19  1  0.54187859  0.82507340  0.75000000  1
  S  S20  1  0.26378749  0.61170193  0.85118208  1
  S  S21  1  0.76378749  0.88829807  0.35118208  1
  S  S22  1  0.04187859  0.67492660  0.25000000  1
  S  S23  1  0.26378749  0.61170193  0.64881792  1
  S  S24  1  0.73621251  0.38829807  0.35118208  1
  S  S25  1  0.95812141  0.32507340  0.75000000  1
  S  S26  1  0.45812141  0.17492660  0.25000000  1
  S  S27  1  0.23621251  0.11170193  0.64881792  1
  I  I28  1  0.72046997  0.64876703  0.96069286  1
  I  I29  1  0.27953003  0.35123297  0.03930714  1
  I  I30  1  0.27953003  0.35123297  0.46069386  1
  I  I31  1  0.77953003  0.14876703  0.96069286  1
  I  I32  1  0.77953003  0.14876703  0.53930714  1
  I  I33  1  0.22046997  0.85123297  0.03930714  1
  I  I34  1  0.22046997  0.85123297  0.46069386  1
  I  I35  1  0.72046997  0.64876703  0.53930714  1
