# generated using pymatgen
data_BaMnO3
_symmetry_space_group_name_H-M   'P 1'
_cell_length_a   12.31945691
_cell_length_b   12.31945691
_cell_length_c   12.31945692
_cell_angle_alpha   26.78387695
_cell_angle_beta   26.78387695
_cell_angle_gamma   26.78387396
_symmetry_Int_Tables_number   1
_chemical_formula_structural   BaMnO3
_chemical_formula_sum   'Ba5 Mn5 O15'
_cell_volume   334.78723854
_cell_formula_units_Z   5
loop_
 _symmetry_equiv_pos_site_id
 _symmetry_equiv_pos_as_xyz
  1  'x, y, z'
loop_
 _atom_site_type_symbol
 _atom_site_label
 _atom_site_symmetry_multiplicity
 _atom_site_fract_x
 _atom_site_fract_y
 _atom_site_fract_z
 _atom_site_occupancy
  Ba  Ba0  1  0.73527416  0.73527416  0.73527416  1
  Ba  Ba1  1  0.86587611  0.86587611  0.86587611  1
  Ba  Ba2  1  -0.00000000  -0.00000000  0.00000000  1
  Ba  Ba3  1  0.13412389  0.13412389  0.13412389  1
  Ba  Ba4  1  0.26472584  0.26472584  0.26472584  1
  Mn  Mn5  1  0.56914027  0.56914027  0.56914027  1
  Mn  Mn6  1  0.63892197  0.63892197  0.63892197  1
  Mn  Mn7  1  0.36107803  0.36107803  0.36107803  1
  Mn  Mn8  1  0.43085973  0.43085973  0.43085973  1
  Mn  Mn9  1  0.50000000  0.50000000  0.50000000  1
  O  O10  1  0.83036169  0.38594282  0.38594282  1
  O  O11  1  0.38594282  0.38594282  0.83036169  1
  O  O12  1  0.38594282  0.83036169  0.38594282  1
  O  O13  1  -0.00000000  0.50000000  0.50000000  1
  O  O14  1  0.50000000  -0.00000000  0.50000000  1
  O  O15  1  0.50000000  0.50000000  0.00000000  1
  O  O16  1  0.61405718  0.16963831  0.61405718  1
  O  O17  1  0.61405718  0.61405718  0.16963831  1
  O  O18  1  0.16963831  0.61405718  0.61405718  1
  O  O19  1  0.25109737  0.25109737  0.68910416  1
  O  O20  1  0.68910416  0.25109737  0.25109737  1
  O  O21  1  0.25109737  0.68910416  0.25109737  1
  O  O22  1  0.74890263  0.31089584  0.74890263  1
  O  O23  1  0.74890263  0.74890263  0.31089584  1
  O  O24  1  0.31089584  0.74890263  0.74890263  1
