# generated using pymatgen
data_CsKPt6(S3O14)2
_symmetry_space_group_name_H-M   'P 1'
_cell_length_a   11.56854975
_cell_length_b   11.56854976
_cell_length_c   11.56854951
_cell_angle_alpha   62.74563211
_cell_angle_beta   62.74563211
_cell_angle_gamma   62.74563328
_symmetry_Int_Tables_number   1
_chemical_formula_structural   CsKPt6(S3O14)2
_chemical_formula_sum   'Cs2 K2 Pt12 S12 O56'
_cell_volume   1161.62859467
_cell_formula_units_Z   2
loop_
 _symmetry_equiv_pos_site_id
 _symmetry_equiv_pos_as_xyz
  1  'x, y, z'
loop_
 _atom_site_type_symbol
 _atom_site_label
 _atom_site_symmetry_multiplicity
 _atom_site_fract_x
 _atom_site_fract_y
 _atom_site_fract_z
 _atom_site_occupancy
  Cs  Cs0  1  0.41353991  0.41353991  0.41353991  1
  Cs  Cs1  1  0.58646009  0.58646009  0.58646009  1
  K  K2  1  0.20549712  0.20549712  0.20549712  1
  K  K3  1  0.79450288  0.79450288  0.79450288  1
  Pt  Pt4  1  0.14787724  0.75134772  0.19833789  1
  Pt  Pt5  1  0.19833789  0.14787724  0.75134772  1
  Pt  Pt6  1  0.72659946  0.98189097  0.03710493  1
  Pt  Pt7  1  0.85212276  0.24865228  0.80166211  1
  Pt  Pt8  1  0.80166211  0.85212276  0.24865228  1
  Pt  Pt9  1  0.24865228  0.80166211  0.85212276  1
  Pt  Pt10  1  0.98189097  0.03710493  0.72659946  1
  Pt  Pt11  1  0.75134772  0.19833789  0.14787724  1
  Pt  Pt12  1  0.27340054  0.01810903  0.96289507  1
  Pt  Pt13  1  0.96289507  0.27340054  0.01810903  1
  Pt  Pt14  1  0.01810903  0.96289507  0.27340054  1
  Pt  Pt15  1  0.03710493  0.72659946  0.98189097  1
  S  S16  1  0.29532293  0.51143141  0.05648646  1
  S  S17  1  0.74017565  0.67838847  0.15930498  1
  S  S18  1  0.70467707  0.48856859  0.94351354  1
  S  S19  1  0.25982435  0.32161153  0.84069502  1
  S  S20  1  0.67838847  0.15930498  0.74017565  1
  S  S21  1  0.05648646  0.29532293  0.51143141  1
  S  S22  1  0.32161153  0.84069502  0.25982435  1
  S  S23  1  0.48856859  0.94351354  0.70467707  1
  S  S24  1  0.15930498  0.74017565  0.67838847  1
  S  S25  1  0.94351354  0.70467707  0.48856859  1
  S  S26  1  0.84069502  0.25982435  0.32161153  1
  S  S27  1  0.51143141  0.05648646  0.29532293  1
  O  O28  1  0.07251998  0.37406771  0.37119046  1
  O  O29  1  0.82012666  0.07507371  0.67255693  1
  O  O30  1  0.37165369  0.92805010  0.11830907  1
  O  O31  1  0.88169093  0.62834631  0.07194990  1
  O  O32  1  0.00467156  0.24092610  0.84536142  1
  O  O33  1  0.66280812  0.59046511  0.20699509  1
  O  O34  1  0.24092610  0.84536142  0.00467156  1
  O  O35  1  0.74558686  0.69471725  0.27923991  1
  O  O36  1  0.39726477  0.07828814  0.63720378  1
  O  O37  1  0.15650944  0.53398060  0.05455086  1
  O  O38  1  0.20699509  0.66280812  0.59046511  1
  O  O39  1  0.44687066  0.83091478  0.72367777  1
  O  O40  1  0.94544914  0.84349056  0.46601940  1
  O  O41  1  0.72076009  0.25441314  0.30528275  1
  O  O42  1  0.37406771  0.37119046  0.07251998  1
  O  O43  1  0.69471725  0.27923991  0.74558686  1
  O  O44  1  0.30528275  0.72076009  0.25441314  1
  O  O45  1  0.05455086  0.15650944  0.53398060  1
  O  O46  1  0.92492629  0.32744307  0.17987334  1
  O  O47  1  0.63720378  0.39726477  0.07828814  1
  O  O48  1  0.11830907  0.37165369  0.92805010  1
  O  O49  1  0.75907390  0.15463858  0.99532844  1
  O  O50  1  0.07194990  0.88169093  0.62834631  1
  O  O51  1  0.37119046  0.07251998  0.37406771  1
  O  O52  1  0.72367777  0.44687066  0.83091478  1
  O  O53  1  0.27632223  0.55312934  0.16908522  1
  O  O54  1  0.17987334  0.92492629  0.32744307  1
  O  O55  1  0.90652521  0.90652521  0.90652521  1
  O  O56  1  0.62880954  0.92748002  0.62593229  1
  O  O57  1  0.15463858  0.99532844  0.75907390  1
  O  O58  1  0.09347479  0.09347479  0.09347479  1
  O  O59  1  0.79300491  0.33719188  0.40953489  1
  O  O60  1  0.07507371  0.67255693  0.82012666  1
  O  O61  1  0.60273523  0.92171186  0.36279622  1
  O  O62  1  0.92171186  0.36279622  0.60273523  1
  O  O63  1  0.62834631  0.07194990  0.88169093  1
  O  O64  1  0.27923991  0.74558686  0.69471725  1
  O  O65  1  0.46601940  0.94544914  0.84349056  1
  O  O66  1  0.62593229  0.62880954  0.92748002  1
  O  O67  1  0.33719188  0.40953489  0.79300491  1
  O  O68  1  0.25441314  0.30528275  0.72076009  1
  O  O69  1  0.07828814  0.63720378  0.39726477  1
  O  O70  1  0.59046511  0.20699509  0.66280812  1
  O  O71  1  0.32744307  0.17987334  0.92492629  1
  O  O72  1  0.84349056  0.46601940  0.94544914  1
  O  O73  1  0.99532844  0.75907390  0.15463858  1
  O  O74  1  0.92805010  0.11830907  0.37165369  1
  O  O75  1  0.40953489  0.79300491  0.33719188  1
  O  O76  1  0.36279622  0.60273523  0.92171186  1
  O  O77  1  0.83091478  0.72367777  0.44687066  1
  O  O78  1  0.53398060  0.05455086  0.15650944  1
  O  O79  1  0.92748002  0.62593229  0.62880954  1
  O  O80  1  0.55312934  0.16908522  0.27632223  1
  O  O81  1  0.16908522  0.27632223  0.55312934  1
  O  O82  1  0.84536142  0.00467156  0.24092610  1
  O  O83  1  0.67255693  0.82012666  0.07507371  1
