# generated using pymatgen
data_Ca2AlH10BrO8
_symmetry_space_group_name_H-M   'P 1'
_cell_length_a   5.73387783
_cell_length_b   8.66802421
_cell_length_c   9.95537276
_cell_angle_alpha   102.68562059
_cell_angle_beta   90.08408228
_cell_angle_gamma   108.95470597
_symmetry_Int_Tables_number   1
_chemical_formula_structural   Ca2AlH10BrO8
_chemical_formula_sum   'Ca4 Al2 H20 Br2 O16'
_cell_volume   455.11951171
_cell_formula_units_Z   2
loop_
 _symmetry_equiv_pos_site_id
 _symmetry_equiv_pos_as_xyz
  1  'x, y, z'
loop_
 _atom_site_type_symbol
 _atom_site_label
 _atom_site_symmetry_multiplicity
 _atom_site_fract_x
 _atom_site_fract_y
 _atom_site_fract_z
 _atom_site_occupancy
  Ca  Ca0  1  0.71513454  0.92567336  0.40320479  1
  Ca  Ca1  1  0.21070888  0.92551931  0.90191945  1
  Ca  Ca2  1  0.28486546  0.07432664  0.59679521  1
  Ca  Ca3  1  0.78929112  0.07448069  0.09808055  1
  Al  Al4  1  0.25410413  0.00192364  0.25094893  1
  Al  Al5  1  0.74589587  0.99807636  0.74905107  1
  H  H6  1  0.58130835  0.56788621  0.24131307  1
  H  H7  1  0.68075789  0.56671532  0.38630983  1
  H  H8  1  0.60595858  0.23957127  0.40439445  1
  H  H9  1  0.89034059  0.23317208  0.62309515  1
  H  H10  1  0.09625562  0.23670880  0.36177522  1
  H  H11  1  0.88212901  0.56819932  0.89059114  1
  H  H12  1  0.97930767  0.56409403  0.74448915  1
  H  H13  1  0.90374438  0.76329120  0.63822478  1
  H  H14  1  0.10965941  0.76682792  0.37690485  1
  H  H15  1  0.39404142  0.76042873  0.59560555  1
  H  H16  1  0.10004702  0.23449574  0.89348462  1
  H  H17  1  0.41229971  0.23868766  0.12446639  1
  H  H18  1  0.59225452  0.23322042  0.86475805  1
  H  H19  1  0.31924211  0.43328468  0.61369017  1
  H  H20  1  0.41869165  0.43211379  0.75868693  1
  H  H21  1  0.40774548  0.76677958  0.13524195  1
  H  H22  1  0.58770029  0.76131234  0.87553361  1
  H  H23  1  0.89995298  0.76550426  0.10651538  1
  H  H24  1  0.02069233  0.43590597  0.25551085  1
  H  H25  1  0.11787099  0.43180068  0.10940886  1
  Br  Br26  1  0.00000000  0.50000000  0.50000000  1
  Br  Br27  1  0.50000000  0.50000000  0.00000000  1
  O  O28  1  0.57959789  0.61353090  0.33987264  1
  O  O29  1  0.49647291  0.12701906  0.40021661  1
  O  O30  1  0.90392500  0.12448035  0.62015096  1
  O  O31  1  0.03496237  0.12464155  0.30391249  1
  O  O32  1  0.02682650  0.61443558  0.84238651  1
  O  O33  1  0.96503763  0.87535845  0.69608751  1
  O  O34  1  0.09607500  0.87551965  0.37984904  1
  O  O35  1  0.50352709  0.87298094  0.59978339  1
  O  O36  1  0.98975747  0.12512827  0.89825195  1
  O  O37  1  0.41133026  0.12623618  0.12031244  1
  O  O38  1  0.53025502  0.12474187  0.80115612  1
  O  O39  1  0.42040211  0.38646910  0.66012736  1
  O  O40  1  0.46974498  0.87525813  0.19884388  1
  O  O41  1  0.58866974  0.87376382  0.87968756  1
  O  O42  1  0.01024253  0.87487173  0.10174805  1
  O  O43  1  0.97317350  0.38556442  0.15761349  1
