# generated using pymatgen
data_K5Nb4O12F
_symmetry_space_group_name_H-M   'P 1'
_cell_length_a   11.89408151
_cell_length_b   5.13104861
_cell_length_c   12.73842783
_cell_angle_alpha   69.37629690
_cell_angle_beta   90.00000000
_cell_angle_gamma   90.00000000
_symmetry_Int_Tables_number   1
_chemical_formula_structural   K5Nb4O12F
_chemical_formula_sum   'K10 Nb8 O24 F2'
_cell_volume   727.59342725
_cell_formula_units_Z   2
loop_
 _symmetry_equiv_pos_site_id
 _symmetry_equiv_pos_as_xyz
  1  'x, y, z'
loop_
 _atom_site_type_symbol
 _atom_site_label
 _atom_site_symmetry_multiplicity
 _atom_site_fract_x
 _atom_site_fract_y
 _atom_site_fract_z
 _atom_site_occupancy
  K  K0  1  0.66916418  0.41099193  0.64854305  1
  K  K1  1  0.50000000  0.00000000  0.50000000  1
  K  K2  1  0.16916418  0.58900807  0.85145695  1
  K  K3  1  -0.00000000  0.00000000  0.00000000  1
  K  K4  1  0.83083582  0.41099193  0.14854305  1
  K  K5  1  0.33083582  0.58900807  0.35145695  1
  K  K6  1  0.14424758  0.27199179  0.17020646  1
  K  K7  1  0.64424758  0.72800821  0.32979354  1
  K  K8  1  0.35575242  0.27199179  0.67020646  1
  K  K9  1  0.85575242  0.72800821  0.82979354  1
  Nb  Nb10  1  0.01288049  0.32905038  0.64577492  1
  Nb  Nb11  1  0.51288049  0.67094962  0.85422508  1
  Nb  Nb12  1  0.98711951  0.67094962  0.35422508  1
  Nb  Nb13  1  0.48711951  0.32905038  0.14577492  1
  Nb  Nb14  1  0.14400803  0.93360897  0.52371641  1
  Nb  Nb15  1  0.64400803  0.06639103  0.97628359  1
  Nb  Nb16  1  0.85599197  0.06639103  0.47628359  1
  Nb  Nb17  1  0.35599197  0.93360897  0.02371641  1
  O  O18  1  0.37110404  0.84885507  0.88314612  1
  O  O19  1  0.62889596  0.15114493  0.11685388  1
  O  O20  1  0.02168146  0.67796699  0.21557978  1
  O  O21  1  0.52168146  0.32203301  0.28442022  1
  O  O22  1  0.97831854  0.32203301  0.78442022  1
  O  O23  1  0.47831854  0.67796699  0.71557978  1
  O  O24  1  0.21663875  0.08064708  0.00170294  1
  O  O25  1  0.71663875  0.91935292  0.49829706  1
  O  O26  1  0.78336125  0.91935292  0.99829706  1
  O  O27  1  0.28336125  0.08064708  0.50170294  1
  O  O28  1  0.10243265  0.99978624  0.67101841  1
  O  O29  1  0.60243265  0.00021376  0.82898159  1
  O  O30  1  0.87110404  0.15114493  0.61685388  1
  O  O31  1  0.39756735  0.99978624  0.17101841  1
  O  O32  1  0.16262084  0.54811325  0.62002698  1
  O  O33  1  0.66262084  0.45188675  0.87997302  1
  O  O34  1  0.83737916  0.45188675  0.37997302  1
  O  O35  1  0.33737916  0.54811325  0.12002698  1
  O  O36  1  0.45925358  0.28219556  0.96203973  1
  O  O37  1  0.95925358  0.71780444  0.53796027  1
  O  O38  1  0.54074642  0.71780444  0.03796027  1
  O  O39  1  0.04074642  0.28219556  0.46203973  1
  O  O40  1  0.89756735  0.00021376  0.32898159  1
  O  O41  1  0.12889596  0.84885507  0.38314612  1
  F  F42  1  0.50000000  0.50000000  0.50000000  1
  F  F43  1  -0.00000000  0.50000000  0.00000000  1
