# generated using pymatgen
data_K2MnH2OF5
_symmetry_space_group_name_H-M   'P 1'
_cell_length_a   5.83719355
_cell_length_b   8.23727375
_cell_length_c   6.07911956
_cell_angle_alpha   89.99803625
_cell_angle_beta   96.56008158
_cell_angle_gamma   89.99869721
_symmetry_Int_Tables_number   1
_chemical_formula_structural   K2MnH2OF5
_chemical_formula_sum   'K4 Mn2 H4 O2 F10'
_cell_volume   290.38583583
_cell_formula_units_Z   2
loop_
 _symmetry_equiv_pos_site_id
 _symmetry_equiv_pos_as_xyz
  1  'x, y, z'
loop_
 _atom_site_type_symbol
 _atom_site_label
 _atom_site_symmetry_multiplicity
 _atom_site_fract_x
 _atom_site_fract_y
 _atom_site_fract_z
 _atom_site_occupancy
  K  K0  1  0.08558039  0.24998591  0.52010664  1
  K  K1  1  0.91435335  0.74999078  0.47989345  1
  K  K2  1  0.49952181  0.24998506  0.09993479  1
  K  K3  1  0.50051400  0.74999149  0.90005020  1
  Mn  Mn4  1  -0.00000991  -0.00001948  -0.00000152  1
  Mn  Mn5  1  -0.00000251  0.49998939  -0.00000939  1
  H  H6  1  0.63389897  0.34584640  0.62599757  1
  H  H7  1  0.36611875  0.84576026  0.37405524  1
  H  H8  1  0.36613314  0.65421415  0.37407154  1
  H  H9  1  0.63383158  0.15430587  0.62592483  1
  O  O10  1  0.56711625  0.25011435  0.54808248  1
  O  O11  1  0.43285481  0.74999974  0.45195488  1
  F  F12  1  0.94942236  0.24998388  0.03238157  1
  F  F13  1  0.05057680  0.74998530  0.96760454  1
  F  F14  1  0.20565193  0.49376313  0.26357690  1
  F  F15  1  0.79438795  0.99377973  0.73642106  1
  F  F16  1  0.79438231  0.50620509  0.73641032  1
  F  F17  1  0.20563529  0.00619609  0.26358432  1
  F  F18  1  0.24275107  0.46466449  0.83675556  1
  F  F19  1  0.75725843  0.96466083  0.16321997  1
  F  F20  1  0.75728123  0.53529217  0.16322146  1
  F  F21  1  0.24274201  0.03530739  0.83676358  1
