# generated using pymatgen
data_K3HRhC5N5O
_symmetry_space_group_name_H-M   'P 1'
_cell_length_a   7.68120175
_cell_length_b   8.40841418
_cell_length_c   8.99833935
_cell_angle_alpha   89.86039207
_cell_angle_beta   100.34412759
_cell_angle_gamma   100.54835585
_symmetry_Int_Tables_number   1
_chemical_formula_structural   K3HRhC5N5O
_chemical_formula_sum   'K6 H2 Rh2 C10 N10 O2'
_cell_volume   561.78734739
_cell_formula_units_Z   2
loop_
 _symmetry_equiv_pos_site_id
 _symmetry_equiv_pos_as_xyz
  1  'x, y, z'
loop_
 _atom_site_type_symbol
 _atom_site_label
 _atom_site_symmetry_multiplicity
 _atom_site_fract_x
 _atom_site_fract_y
 _atom_site_fract_z
 _atom_site_occupancy
  K  K0  1  0.68033856  0.37652574  0.82324035  1
  K  K1  1  0.31966144  0.62347426  0.17675965  1
  K  K2  1  0.30539126  0.08358797  0.18246286  1
  K  K3  1  0.69460874  0.91641203  0.81753714  1
  K  K4  1  0.13226839  0.31626475  0.70951411  1
  K  K5  1  0.86773161  0.68373525  0.29048589  1
  H  H6  1  0.99707718  0.07714537  0.32709891  1
  H  H7  1  0.00292282  0.92285463  0.67290109  1
  Rh  Rh8  1  0.85604092  0.19187876  0.27133828  1
  Rh  Rh9  1  0.14395908  0.80812124  0.72866172  1
  C  C10  1  0.69030658  0.99776946  0.19892329  1
  C  C11  1  0.30969342  0.00223054  0.80107671  1
  C  C12  1  0.20702751  0.36550940  0.40846797  1
  C  C13  1  0.79297249  0.63449060  0.59153203  1
  C  C14  1  0.93959866  0.20937802  0.07535825  1
  C  C15  1  0.06040134  0.79062198  0.92464175  1
  C  C16  1  0.78900932  0.16988854  0.47688095  1
  C  C17  1  0.21099068  0.83011146  0.52311905  1
  C  C18  1  0.66736081  0.33663802  0.20531385  1
  C  C19  1  0.33263919  0.66336198  0.79468615  1
  N  N20  1  0.99241787  0.22333229  0.96087185  1
  N  N21  1  0.00758213  0.77666771  0.03912815  1
  N  N22  1  0.59061901  0.87915801  0.15025772  1
  N  N23  1  0.40938099  0.12084199  0.84974228  1
  N  N24  1  0.75610818  0.15965340  0.59892177  1
  N  N25  1  0.24389182  0.84034660  0.40107823  1
  N  N26  1  0.06886196  0.40382379  0.34661603  1
  N  N27  1  0.93113804  0.59617621  0.65338397  1
  N  N28  1  0.55484200  0.41346151  0.17042127  1
  N  N29  1  0.44515800  0.58653849  0.82957873  1
  O  O30  1  0.34493056  0.33053819  0.47322324  1
  O  O31  1  0.65506944  0.66946181  0.52677676  1
