# generated using pymatgen
data_Lu2(CN2)3
_symmetry_space_group_name_H-M   'P 1'
_cell_length_a   10.43554811
_cell_length_b   10.43554811
_cell_length_c   10.43554820
_cell_angle_alpha   34.74543492
_cell_angle_beta   34.74543492
_cell_angle_gamma   34.74543908
_symmetry_Int_Tables_number   1
_chemical_formula_structural   Lu2(CN2)3
_chemical_formula_sum   'Lu4 C6 N12'
_cell_volume   329.45491482
_cell_formula_units_Z   2
loop_
 _symmetry_equiv_pos_site_id
 _symmetry_equiv_pos_as_xyz
  1  'x, y, z'
loop_
 _atom_site_type_symbol
 _atom_site_label
 _atom_site_symmetry_multiplicity
 _atom_site_fract_x
 _atom_site_fract_y
 _atom_site_fract_z
 _atom_site_occupancy
  Lu  Lu0  1  0.66413460  0.66413460  0.66413460  1
  Lu  Lu1  1  0.83586540  0.83586540  0.83586540  1
  Lu  Lu2  1  0.33586540  0.33586540  0.33586540  1
  Lu  Lu3  1  0.16413460  0.16413460  0.16413460  1
  C  C4  1  0.04679612  0.45320388  0.75000000  1
  C  C5  1  0.95320388  0.54679612  0.25000000  1
  C  C6  1  0.25000000  0.95320388  0.54679612  1
  C  C7  1  0.54679612  0.25000000  0.95320388  1
  C  C8  1  0.45320388  0.75000000  0.04679612  1
  C  C9  1  0.75000000  0.04679612  0.45320388  1
  N  N10  1  0.86125903  0.04682484  0.46037678  1
  N  N11  1  0.36125903  0.96037678  0.54682484  1
  N  N12  1  0.04682484  0.46037678  0.86125903  1
  N  N13  1  0.95317516  0.53962322  0.13874097  1
  N  N14  1  0.03962322  0.45317516  0.63874097  1
  N  N15  1  0.45317516  0.63874097  0.03962322  1
  N  N16  1  0.63874097  0.03962322  0.45317516  1
  N  N17  1  0.96037678  0.54682484  0.36125903  1
  N  N18  1  0.13874097  0.95317516  0.53962322  1
  N  N19  1  0.54682484  0.36125903  0.96037678  1
  N  N20  1  0.46037678  0.86125903  0.04682484  1
  N  N21  1  0.53962322  0.13874097  0.95317516  1
