# generated using pymatgen
data_NaCaSiHO4
_symmetry_space_group_name_H-M   'P 1'
_cell_length_a   7.03456852
_cell_length_b   5.39814252
_cell_length_c   5.45496424
_cell_angle_alpha   63.54857936
_cell_angle_beta   90.00000000
_cell_angle_gamma   90.00000000
_symmetry_Int_Tables_number   1
_chemical_formula_structural   NaCaSiHO4
_chemical_formula_sum   'Na2 Ca2 Si2 H2 O8'
_cell_volume   185.45916412
_cell_formula_units_Z   2
loop_
 _symmetry_equiv_pos_site_id
 _symmetry_equiv_pos_as_xyz
  1  'x, y, z'
loop_
 _atom_site_type_symbol
 _atom_site_label
 _atom_site_symmetry_multiplicity
 _atom_site_fract_x
 _atom_site_fract_y
 _atom_site_fract_z
 _atom_site_occupancy
  Na  Na0  1  0.76589711  0.36015929  0.25820538  1
  Na  Na1  1  0.26589711  0.63984071  0.74179462  1
  Ca  Ca2  1  0.51389874  0.99685023  0.99407091  1
  Ca  Ca3  1  0.01389874  0.00314977  0.00592909  1
  Si  Si4  1  0.75493371  0.65659238  0.62642830  1
  Si  Si5  1  0.25493371  0.34340762  0.37357170  1
  H  H6  1  -0.00061492  0.96346458  0.53223238  1
  H  H7  1  0.49938508  0.03653542  0.46776762  1
  O  O8  1  0.76335469  0.32458728  0.80514248  1
  O  O9  1  0.26335469  0.67541272  0.19485752  1
  O  O10  1  0.76116301  0.76233680  0.29715666  1
  O  O11  1  0.26116301  0.23766320  0.70284334  1
  O  O12  1  0.57321905  0.79005890  0.70985752  1
  O  O13  1  0.07321905  0.20994110  0.29014248  1
  O  O14  1  0.95114861  0.79053006  0.70263308  1
  O  O15  1  0.45114861  0.20946994  0.29736692  1
