# generated using pymatgen
data_Cs4TlSbCl12
_symmetry_space_group_name_H-M   'P 1'
_cell_length_a   12.88610829
_cell_length_b   12.88610829
_cell_length_c   12.88610829
_cell_angle_alpha   131.66199950
_cell_angle_beta   131.66199950
_cell_angle_gamma   70.76338865
_symmetry_Int_Tables_number   1
_chemical_formula_structural   Cs4TlSbCl12
_chemical_formula_sum   'Cs8 Tl2 Sb2 Cl24'
_cell_volume   1169.78972885
_cell_formula_units_Z   2
loop_
 _symmetry_equiv_pos_site_id
 _symmetry_equiv_pos_as_xyz
  1  'x, y, z'
loop_
 _atom_site_type_symbol
 _atom_site_label
 _atom_site_symmetry_multiplicity
 _atom_site_fract_x
 _atom_site_fract_y
 _atom_site_fract_z
 _atom_site_occupancy
  Cs  Cs0  1  0.87500000  0.90157480  0.52657480  1
  Cs  Cs1  1  0.65157480  0.12500000  0.02657480  1
  Cs  Cs2  1  0.37500000  0.90157480  0.02657480  1
  Cs  Cs3  1  0.87500000  0.34842520  0.97342520  1
  Cs  Cs4  1  0.65157480  0.62500000  0.52657480  1
  Cs  Cs5  1  0.09842520  0.12500000  0.47342520  1
  Cs  Cs6  1  0.37500000  0.34842520  0.47342520  1
  Cs  Cs7  1  0.09842520  0.62500000  0.97342520  1
  Tl  Tl8  1  -0.00000000  0.00000000  -0.00000000  1
  Tl  Tl9  1  0.75000000  0.25000000  0.50000000  1
  Sb  Sb10  1  0.25000000  0.75000000  0.50000000  1
  Sb  Sb11  1  0.50000000  0.50000000  -0.00000000  1
  Cl  Cl12  1  0.00206296  0.25409197  0.74796999  1
  Cl  Cl13  1  0.72797694  0.50099033  0.22698661  1
  Cl  Cl14  1  0.02202306  0.74900967  0.27301339  1
  Cl  Cl15  1  0.49900967  0.72599629  0.22698661  1
  Cl  Cl16  1  0.49900967  0.27202306  0.77301339  1
  Cl  Cl17  1  0.62571483  0.12571483  0.50000000  1
  Cl  Cl18  1  0.74793704  0.99590803  0.75203001  1
  Cl  Cl19  1  0.74590803  0.99793704  0.25203001  1
  Cl  Cl20  1  0.13612430  0.63612430  0.50000000  1
  Cl  Cl21  1  0.87571483  0.87571483  -0.00000000  1
  Cl  Cl22  1  0.25099033  0.97797694  0.72698661  1
  Cl  Cl23  1  0.87428517  0.37428517  0.50000000  1
  Cl  Cl24  1  0.50612198  0.25409197  0.25203001  1
  Cl  Cl25  1  0.25099033  0.52400371  0.27301339  1
  Cl  Cl26  1  0.27400371  0.50099033  0.77301339  1
  Cl  Cl27  1  0.00409197  0.25206296  0.24796999  1
  Cl  Cl28  1  0.24387802  0.99590803  0.24796999  1
  Cl  Cl29  1  0.61387570  0.61387570  -0.00000000  1
  Cl  Cl30  1  0.12428517  0.12428517  -0.00000000  1
  Cl  Cl31  1  0.36387570  0.86387570  0.50000000  1
  Cl  Cl32  1  0.00409197  0.75612198  0.75203001  1
  Cl  Cl33  1  0.47599629  0.74900967  0.72698661  1
  Cl  Cl34  1  0.38612430  0.38612430  -0.00000000  1
  Cl  Cl35  1  0.74590803  0.49387802  0.74796999  1
