# generated using pymatgen
data_InOF
_symmetry_space_group_name_H-M   'P 1'
_cell_length_a   6.70803187
_cell_length_b   6.30240537
_cell_length_c   5.56630486
_cell_angle_alpha   68.50716864
_cell_angle_beta   60.95036934
_cell_angle_gamma   50.54246202
_symmetry_Int_Tables_number   1
_chemical_formula_structural   InOF
_chemical_formula_sum   'In4 O4 F4'
_cell_volume   158.25289531
_cell_formula_units_Z   4
loop_
 _symmetry_equiv_pos_site_id
 _symmetry_equiv_pos_as_xyz
  1  'x, y, z'
loop_
 _atom_site_type_symbol
 _atom_site_label
 _atom_site_symmetry_multiplicity
 _atom_site_fract_x
 _atom_site_fract_y
 _atom_site_fract_z
 _atom_site_occupancy
  In  In0  1  0.44676800  0.04477300  0.45902300  1
  In  In1  1  0.05572100  0.44063400  0.04757800  1
  In  In2  1  0.79349100  0.20794500  0.80583500  1
  In  In3  1  0.20533800  0.80409500  0.19772200  1
  O  O4  1  0.38874700  0.38276000  0.12213300  1
  O  O5  1  0.14102700  0.14139100  0.85968900  1
  O  O6  1  0.86801800  0.85340100  0.13820300  1
  O  O7  1  0.12090600  0.11540500  0.38034300  1
  F  F8  1  0.63150100  0.11663400  0.61976600  1
  F  F9  1  0.13131600  0.62572300  0.62649400  1
  F  F10  1  0.62817300  0.62787500  0.61495500  1
  F  F11  1  0.63416600  0.62372400  0.12065300  1
