# generated using pymatgen
data_Cs3Cr2I9
_symmetry_space_group_name_H-M   'P 1'
_cell_length_a   8.18217701
_cell_length_b   8.18204509
_cell_length_c   20.62946098
_cell_angle_alpha   89.99747273
_cell_angle_beta   90.00780229
_cell_angle_gamma   120.00733893
_symmetry_Int_Tables_number   1
_chemical_formula_structural   Cs3Cr2I9
_chemical_formula_sum   'Cs6 Cr4 I18'
_cell_volume   1195.96129702
_cell_formula_units_Z   2
loop_
 _symmetry_equiv_pos_site_id
 _symmetry_equiv_pos_as_xyz
  1  'x, y, z'
loop_
 _atom_site_type_symbol
 _atom_site_label
 _atom_site_symmetry_multiplicity
 _atom_site_fract_x
 _atom_site_fract_y
 _atom_site_fract_z
 _atom_site_occupancy
  Cs  Cs0  1  0.33332157  0.66666087  0.43093323  1
  Cs  Cs1  1  0.66667807  0.33329902  0.93095096  1
  Cs  Cs2  1  -0.00001289  -0.00000637  0.25001904  1
  Cs  Cs3  1  0.33332141  0.66665611  0.06909413  1
  Cs  Cs4  1  -0.00000739  -0.00000936  0.74999779  1
  Cs  Cs5  1  0.66663367  0.33335504  0.56906090  1
  Cr  Cr6  1  0.66666326  0.33333649  0.16290041  1
  Cr  Cr7  1  0.33334954  0.66667320  0.83713940  1
  Cr  Cr8  1  0.33333677  0.66671781  0.66285452  1
  Cr  Cr9  1  0.66667473  0.33333490  0.33709851  1
  I  I10  1  0.82621385  0.65242320  0.09164763  1
  I  I11  1  0.51303465  0.48693980  0.24999759  1
  I  I12  1  0.51300252  0.02601395  0.24999569  1
  I  I13  1  0.02612549  0.51308446  0.75001275  1
  I  I14  1  0.65246294  0.82646447  0.59157297  1
  I  I15  1  0.17383284  0.82631005  0.59156092  1
  I  I16  1  0.97396060  0.48702297  0.24999103  1
  I  I17  1  0.34761522  0.17381452  0.09160610  1
  I  I18  1  0.82622939  0.17372934  0.40839954  1
  I  I19  1  0.17397191  0.34751778  0.90843170  1
  I  I20  1  0.48693571  0.51308370  0.74995025  1
  I  I21  1  0.17352364  0.34757210  0.59157446  1
  I  I22  1  0.48690553  0.97380536  0.75001413  1
  I  I23  1  0.34760884  0.17385961  0.40837696  1
  I  I24  1  0.82618367  0.17376540  0.09162447  1
  I  I25  1  0.82620604  0.65240544  0.40836895  1
  I  I26  1  0.17374052  0.82612349  0.90839182  1
  I  I27  1  0.65248690  0.82604665  0.90843311  1
