# generated using pymatgen
data_K3UO2F5
_symmetry_space_group_name_H-M   'P 1'
_cell_length_a   11.08385546
_cell_length_b   11.08385546
_cell_length_c   11.08385546
_cell_angle_alpha   131.44177004
_cell_angle_beta   131.44177004
_cell_angle_gamma   71.11213234
_symmetry_Int_Tables_number   1
_chemical_formula_structural   K3UO2F5
_chemical_formula_sum   'K12 U4 O8 F20'
_cell_volume   749.17550632
_cell_formula_units_Z   4
loop_
 _symmetry_equiv_pos_site_id
 _symmetry_equiv_pos_as_xyz
  1  'x, y, z'
loop_
 _atom_site_type_symbol
 _atom_site_label
 _atom_site_symmetry_multiplicity
 _atom_site_fract_x
 _atom_site_fract_y
 _atom_site_fract_z
 _atom_site_occupancy
  K  K0  1  0.34546587  0.82411626  0.94816783  1
  K  K1  1  0.57411626  0.12594843  0.97865040  1
  K  K2  1  0.14729903  0.59546587  0.02134960  1
  K  K3  1  0.87594843  0.39729903  0.05183217  1
  K  K4  1  0.40453413  0.42588374  0.55183217  1
  K  K5  1  0.17588374  0.12405157  0.52134960  1
  K  K6  1  0.60270097  0.65453413  0.47865040  1
  K  K7  1  0.87405157  0.85270097  0.44816783  1
  K  K8  1  0.00000000  -0.00000000  -0.00000000  1
  K  K9  1  0.75000000  0.25000000  0.50000000  1
  K  K10  1  0.50000000  0.50000000  -0.00000000  1
  K  K11  1  0.25000000  0.75000000  0.50000000  1
  U  U12  1  0.97919961  0.47919961  0.50000000  1
  U  U13  1  0.22919961  0.22919961  0.00000000  1
  U  U14  1  0.77080039  0.77080039  0.00000000  1
  U  U15  1  0.52080039  0.02080039  0.50000000  1
  O  O16  1  0.03251049  0.27492912  0.85019701  1
  O  O17  1  0.02492912  0.67473211  0.74241863  1
  O  O18  1  0.93231348  0.28251049  0.25758137  1
  O  O19  1  0.42473211  0.18231348  0.14980299  1
  O  O20  1  0.71748951  0.97507088  0.64980299  1
  O  O21  1  0.72507088  0.57526789  0.75758137  1
  O  O22  1  0.81768652  0.96748951  0.24241863  1
  O  O23  1  0.32526789  0.06768652  0.35019701  1
  F  F24  1  0.42561092  0.75025752  0.21534772  1
  F  F25  1  0.50025752  0.78490879  0.82464660  1
  F  F26  1  0.96026219  0.67561092  0.17535340  1
  F  F27  1  0.53490879  0.21026219  0.78465228  1
  F  F28  1  0.32438908  0.49974248  0.28465228  1
  F  F29  1  0.24974248  0.46509121  0.67535340  1
  F  F30  1  0.78973781  0.57438908  0.32464660  1
  F  F31  1  0.21509121  0.03973781  0.71534772  1
  F  F32  1  0.39445686  0.89445686  0.50000000  1
  F  F33  1  0.64445686  0.64445686  0.00000000  1
  F  F34  1  0.35554314  0.35554314  0.00000000  1
  F  F35  1  0.10554314  0.60554314  0.50000000  1
  F  F36  1  0.10998608  0.98411046  0.83580883  1
  F  F37  1  0.73411046  0.39830162  0.37412338  1
  F  F38  1  0.02417724  0.35998608  0.62587662  1
  F  F39  1  0.14830162  0.27417724  0.16419117  1
  F  F40  1  0.64001392  0.26588954  0.66419117  1
  F  F41  1  0.01588954  0.85169838  0.12587662  1
  F  F42  1  0.72582276  0.89001392  0.87412338  1
  F  F43  1  0.60169838  0.97582276  0.33580883  1
