# generated using pymatgen
data_La2GeO5
_symmetry_space_group_name_H-M   'P 1'
_cell_length_a   7.47272249
_cell_length_b   7.10139137
_cell_length_c   9.60805539
_cell_angle_alpha   72.58969249
_cell_angle_beta   90.00000000
_cell_angle_gamma   90.00000000
_symmetry_Int_Tables_number   1
_chemical_formula_structural   La2GeO5
_chemical_formula_sum   'La8 Ge4 O20'
_cell_volume   486.50922060
_cell_formula_units_Z   4
loop_
 _symmetry_equiv_pos_site_id
 _symmetry_equiv_pos_as_xyz
  1  'x, y, z'
loop_
 _atom_site_type_symbol
 _atom_site_label
 _atom_site_symmetry_multiplicity
 _atom_site_fract_x
 _atom_site_fract_y
 _atom_site_fract_z
 _atom_site_occupancy
  La  La0  1  0.35536084  0.91642878  0.38246991  1
  La  La1  1  0.14463916  0.41642878  0.38246991  1
  La  La2  1  0.62477424  0.23471647  0.97829430  1
  La  La3  1  0.64463916  0.08357122  0.61753009  1
  La  La4  1  0.87522576  0.73471647  0.97829430  1
  La  La5  1  0.37522576  0.76528353  0.02170570  1
  La  La6  1  0.85536084  0.58357122  0.61753009  1
  La  La7  1  0.12477424  0.26528353  0.02170570  1
  Ge  Ge8  1  0.58832008  0.45982252  0.29802105  1
  Ge  Ge9  1  0.91167992  0.95982252  0.29802105  1
  Ge  Ge10  1  0.08832008  0.04017748  0.70197895  1
  Ge  Ge11  1  0.41167992  0.54017748  0.70197895  1
  O  O12  1  0.22725030  0.55271749  0.59189279  1
  O  O13  1  0.86235640  0.00968476  0.11016937  1
  O  O14  1  0.13764360  0.99031524  0.88983063  1
  O  O15  1  0.87880149  0.44900581  0.88624882  1
  O  O16  1  0.77274970  0.44728251  0.40810721  1
  O  O17  1  0.63764360  0.50968476  0.11016937  1
  O  O18  1  0.95494452  0.24993199  0.63072799  1
  O  O19  1  0.12119851  0.55099419  0.11375118  1
  O  O20  1  0.45494452  0.25006801  0.36927201  1
  O  O21  1  0.07639799  0.14425666  0.29132708  1
  O  O22  1  0.72725030  0.94728251  0.40810721  1
  O  O23  1  0.62119851  0.94900581  0.88624882  1
  O  O24  1  0.54505548  0.74993199  0.63072799  1
  O  O25  1  0.27274970  0.05271749  0.59189279  1
  O  O26  1  0.04505548  0.75006801  0.36927201  1
  O  O27  1  0.37880149  0.05099419  0.11375118  1
  O  O28  1  0.92360201  0.85574334  0.70867292  1
  O  O29  1  0.57639799  0.35574334  0.70867292  1
  O  O30  1  0.36235640  0.49031524  0.88983063  1
  O  O31  1  0.42360201  0.64425666  0.29132708  1
