# generated using pymatgen
data_Gd2Se2O
_symmetry_space_group_name_H-M   'P 1'
_cell_length_a   3.96456652
_cell_length_b   7.07340249
_cell_length_c   16.19932921
_cell_angle_alpha   90.00000000
_cell_angle_beta   90.00000000
_cell_angle_gamma   90.00000000
_symmetry_Int_Tables_number   1
_chemical_formula_structural   Gd2Se2O
_chemical_formula_sum   'Gd8 Se8 O4'
_cell_volume   454.27737910
_cell_formula_units_Z   4
loop_
 _symmetry_equiv_pos_site_id
 _symmetry_equiv_pos_as_xyz
  1  'x, y, z'
loop_
 _atom_site_type_symbol
 _atom_site_label
 _atom_site_symmetry_multiplicity
 _atom_site_fract_x
 _atom_site_fract_y
 _atom_site_fract_z
 _atom_site_occupancy
  Gd  Gd0  1  0.25000000  0.69819179  0.03852226  1
  Gd  Gd1  1  0.75000000  0.74109744  0.83872685  1
  Gd  Gd2  1  0.25000000  0.24109744  0.66127315  1
  Gd  Gd3  1  0.25000000  0.25890256  0.16127315  1
  Gd  Gd4  1  0.25000000  0.80180821  0.53852226  1
  Gd  Gd5  1  0.75000000  0.75890256  0.33872685  1
  Gd  Gd6  1  0.75000000  0.30180821  0.96147774  1
  Gd  Gd7  1  0.75000000  0.19819179  0.46147774  1
  Se  Se8  1  0.75000000  0.55076770  0.18008753  1
  Se  Se9  1  0.75000000  0.48867121  0.59910019  1
  Se  Se10  1  0.25000000  0.44923230  0.81991247  1
  Se  Se11  1  0.75000000  0.01132879  0.09910019  1
  Se  Se12  1  0.25000000  0.05076770  0.31991247  1
  Se  Se13  1  0.25000000  0.98867121  0.90089981  1
  Se  Se14  1  0.75000000  0.94923230  0.68008753  1
  Se  Se15  1  0.25000000  0.51132879  0.40089981  1
  O  O16  1  0.25000000  0.12780299  0.53054548  1
  O  O17  1  0.75000000  0.87219701  0.46945452  1
  O  O18  1  0.75000000  0.62780299  0.96945452  1
  O  O19  1  0.25000000  0.37219701  0.03054548  1
