# generated using pymatgen
data_Na2MoC3SeN3
_symmetry_space_group_name_H-M   'P 1'
_cell_length_a   12.24974447
_cell_length_b   12.24974447
_cell_length_c   12.24974447
_cell_angle_alpha   101.87316784
_cell_angle_beta   101.87316784
_cell_angle_gamma   126.05121436
_symmetry_Int_Tables_number   1
_chemical_formula_structural   Na2MoC3SeN3
_chemical_formula_sum   'Na16 Mo8 C24 Se8 N24'
_cell_volume   1324.45178548
_cell_formula_units_Z   8
loop_
 _symmetry_equiv_pos_site_id
 _symmetry_equiv_pos_as_xyz
  1  'x, y, z'
loop_
 _atom_site_type_symbol
 _atom_site_label
 _atom_site_symmetry_multiplicity
 _atom_site_fract_x
 _atom_site_fract_y
 _atom_site_fract_z
 _atom_site_occupancy
  Na  Na0  1  0.64091400  0.50000000  0.14091400  1
  Na  Na1  1  0.34910100  0.73281300  0.11628800  1
  Na  Na2  1  0.26718700  0.65089900  0.38371200  1
  Na  Na3  1  0.50000000  0.35908600  0.35908600  1
  Na  Na4  1  0.26718700  0.38347500  0.11628800  1
  Na  Na5  1  0.73281300  0.61652500  0.88371200  1
  Na  Na6  1  0.65089900  0.26718700  0.88371200  1
  Na  Na7  1  0.35908600  0.50000000  0.85908600  1
  Na  Na8  1  0.61652500  0.73281300  0.38371200  1
  Na  Na9  1  0.64091400  0.00000000  0.64091400  1
  Na  Na10  1  0.73281300  0.34910100  0.61628800  1
  Na  Na11  1  0.35908600  0.00000000  0.35908600  1
  Na  Na12  1  0.00000000  0.64091400  0.14091400  1
  Na  Na13  1  0.38347500  0.26718700  0.61628800  1
  Na  Na14  1  0.00000000  0.35908600  0.85908600  1
  Na  Na15  1  0.50000000  0.64091400  0.64091400  1
  Mo  Mo16  1  0.93436800  0.77979800  0.65457000  1
  Mo  Mo17  1  0.77979800  0.12522800  0.34543000  1
  Mo  Mo18  1  0.87477200  0.22020200  0.15457000  1
  Mo  Mo19  1  0.12522800  0.77979800  0.84543000  1
  Mo  Mo20  1  0.22020200  0.87477200  0.65457000  1
  Mo  Mo21  1  0.77979800  0.93436800  0.15457000  1
  Mo  Mo22  1  0.22020200  0.06563200  0.84543000  1
  Mo  Mo23  1  0.06563200  0.22020200  0.34543000  1
  C  C24  1  0.84591600  0.80651200  0.13713600  1
  C  C25  1  0.79122000  0.15408400  0.96059600  1
  C  C26  1  0.94587000  0.58808300  0.85778800  1
  C  C27  1  0.19348800  0.33062400  0.53940400  1
  C  C28  1  0.84591600  0.20878000  0.53940400  1
  C  C29  1  0.19348800  0.15408400  0.36286400  1
  C  C30  1  0.58808300  0.73029500  0.14221200  1
  C  C31  1  0.05413000  0.41191700  0.14221200  1
  C  C32  1  0.66937600  0.80651200  0.96059600  1
  C  C33  1  0.79122000  0.33062400  0.13713600  1
  C  C34  1  0.41191700  0.26970500  0.85778800  1
  C  C35  1  0.33062400  0.19348800  0.03940400  1
  C  C36  1  0.66937600  0.20878000  0.36286400  1
  C  C37  1  0.20878000  0.66937600  0.86286400  1
  C  C38  1  0.33062400  0.79122000  0.63713600  1
  C  C39  1  0.26970500  0.41191700  0.35778800  1
  C  C40  1  0.15408400  0.19348800  0.86286400  1
  C  C41  1  0.20878000  0.84591600  0.03940400  1
  C  C42  1  0.58808300  0.94587000  0.35778800  1
  C  C43  1  0.41191700  0.05413000  0.64221200  1
  C  C44  1  0.80651200  0.66937600  0.46059600  1
  C  C45  1  0.80651200  0.84591600  0.63713600  1
  C  C46  1  0.73029500  0.58808300  0.64221200  1
  C  C47  1  0.15408400  0.79122000  0.46059600  1
  Se  Se48  1  0.11765600  0.00011300  0.61754300  1
  Se  Se49  1  0.61743000  0.99988700  0.11754300  1
  Se  Se50  1  0.00011300  0.11765600  0.11754300  1
  Se  Se51  1  0.38257000  0.00011300  0.88245700  1
  Se  Se52  1  0.99988700  0.88234400  0.88245700  1
  Se  Se53  1  0.88234400  0.99988700  0.38245700  1
  Se  Se54  1  0.00011300  0.38257000  0.38245700  1
  Se  Se55  1  0.99988700  0.61743000  0.61754300  1
  N  N56  1  0.75198600  0.13731400  0.85735100  1
  N  N57  1  0.39463500  0.75198600  0.61467200  1
  N  N58  1  0.86268600  0.72003700  0.11467200  1
  N  N59  1  0.85310800  0.48283900  0.87026900  1
  N  N60  1  0.60536500  0.24801400  0.38532800  1
  N  N61  1  0.72003700  0.60536500  0.35735100  1
  N  N62  1  0.75198600  0.39463500  0.11467200  1
  N  N63  1  0.38743000  0.51716100  0.37026900  1
  N  N64  1  0.51716100  0.38743000  0.87026900  1
  N  N65  1  0.61257000  0.48283900  0.62973100  1
  N  N66  1  0.48283900  0.85310800  0.37026900  1
  N  N67  1  0.60536500  0.72003700  0.85735100  1
  N  N68  1  0.27996300  0.39463500  0.64264900  1
  N  N69  1  0.72003700  0.86268600  0.61467200  1
  N  N70  1  0.51716100  0.14689200  0.62973100  1
  N  N71  1  0.39463500  0.27996300  0.14264900  1
  N  N72  1  0.48283900  0.61257000  0.12973100  1
  N  N73  1  0.24801400  0.60536500  0.88532800  1
  N  N74  1  0.13731400  0.75198600  0.35735100  1
  N  N75  1  0.86268600  0.24801400  0.64264900  1
  N  N76  1  0.27996300  0.13731400  0.38532800  1
  N  N77  1  0.14689200  0.51716100  0.12973100  1
  N  N78  1  0.24801400  0.86268600  0.14264900  1
  N  N79  1  0.13731400  0.27996300  0.88532800  1
