# generated using pymatgen
data_Bi12PbO20
_symmetry_space_group_name_H-M   'P 1'
_cell_length_a   8.88492998
_cell_length_b   8.88493332
_cell_length_c   8.88493428
_cell_angle_alpha   109.47145152
_cell_angle_beta   109.47124878
_cell_angle_gamma   109.47120102
_symmetry_Int_Tables_number   1
_chemical_formula_structural   Bi12PbO20
_chemical_formula_sum   'Bi12 Pb1 O20'
_cell_volume   539.93219976
_cell_formula_units_Z   1
loop_
 _symmetry_equiv_pos_site_id
 _symmetry_equiv_pos_as_xyz
  1  'x, y, z'
loop_
 _atom_site_type_symbol
 _atom_site_label
 _atom_site_symmetry_multiplicity
 _atom_site_fract_x
 _atom_site_fract_y
 _atom_site_fract_z
 _atom_site_occupancy
  Bi  Bi0  1  0.83804826  0.33522492  0.14503914  1
  Bi  Bi1  1  0.80981108  0.66477347  0.50282068  1
  Bi  Bi2  1  0.19019012  0.69301006  0.85496533  1
  Bi  Bi3  1  0.50282111  0.80981286  0.66477414  1
  Bi  Bi4  1  0.85496304  0.19018799  0.69300978  1
  Bi  Bi5  1  0.66477405  0.50281980  0.80981050  1
  Bi  Bi6  1  0.33522438  0.14503715  0.83804680  1
  Bi  Bi7  1  0.69301001  0.85496549  0.19018950  1
  Bi  Bi8  1  0.30699099  0.49717602  0.16195235  1
  Bi  Bi9  1  0.14503932  0.83804824  0.33522526  1
  Bi  Bi10  1  0.16195071  0.30699040  0.49717518  1
  Bi  Bi11  1  0.49717641  0.16195125  0.30699123  1
  Pb  Pb12  1  0.00000496  0.00000575  0.00000583  1
  O  O13  1  0.37704748  0.26332267  0.62038678  1
  O  O14  1  0.35706227  0.73667879  0.11372091  1
  O  O15  1  0.00000031  -0.00000075  0.76613691  1
  O  O16  1  0.76613828  0.00000016  -0.00000012  1
  O  O17  1  0.75665890  0.37961598  0.64293837  1
  O  O18  1  0.62038588  0.37704682  0.26332235  1
  O  O19  1  0.37961600  0.64293756  0.75666034  1
  O  O20  1  0.62295383  0.24333977  0.88627545  1
  O  O21  1  0.37238614  -0.00000074  -0.00000136  1
  O  O22  1  0.11372278  0.35706326  0.73667917  1
  O  O23  1  0.88627525  0.62295435  0.24333962  1
  O  O24  1  0.26332263  0.62038552  0.37704636  1
  O  O25  1  -0.00000074  0.37238706  -0.00000025  1
  O  O26  1  -0.00000074  0.76613646  -0.00000075  1
  O  O27  1  0.24334041  0.88627695  0.62295554  1
  O  O28  1  0.23385720  0.23385766  0.23385784  1
  O  O29  1  -0.00000055  -0.00000067  0.37238690  1
  O  O30  1  0.62761426  0.62761390  0.62761452  1
  O  O31  1  0.64293769  0.75665950  0.37961598  1
  O  O32  1  0.73667825  0.11371935  0.35706069  1
