# generated using pymatgen
data_Cs2GeTe4
_symmetry_space_group_name_H-M   'P 1'
_cell_length_a   7.76442812
_cell_length_b   11.68114674
_cell_length_c   12.84857871
_cell_angle_alpha   90.00000000
_cell_angle_beta   90.00000000
_cell_angle_gamma   90.00000000
_symmetry_Int_Tables_number   1
_chemical_formula_structural   Cs2GeTe4
_chemical_formula_sum   'Cs8 Ge4 Te16'
_cell_volume   1165.33299391
_cell_formula_units_Z   4
loop_
 _symmetry_equiv_pos_site_id
 _symmetry_equiv_pos_as_xyz
  1  'x, y, z'
loop_
 _atom_site_type_symbol
 _atom_site_label
 _atom_site_symmetry_multiplicity
 _atom_site_fract_x
 _atom_site_fract_y
 _atom_site_fract_z
 _atom_site_occupancy
  Cs  Cs0  1  0.09739229  0.55511302  0.14644856  1
  Cs  Cs1  1  0.59739229  0.44488698  0.35355144  1
  Cs  Cs2  1  0.40260771  0.94488698  0.64644856  1
  Cs  Cs3  1  0.40260771  0.55511302  0.64644856  1
  Cs  Cs4  1  0.59739229  0.05511302  0.35355144  1
  Cs  Cs5  1  0.09739229  0.94488698  0.14644856  1
  Cs  Cs6  1  0.90260771  0.44488698  0.85355144  1
  Cs  Cs7  1  0.90260771  0.05511302  0.85355144  1
  Ge  Ge8  1  0.50595629  0.75000000  0.93604809  1
  Ge  Ge9  1  0.00595629  0.25000000  0.56395191  1
  Ge  Ge10  1  0.49404371  0.25000000  0.06395191  1
  Ge  Ge11  1  0.99404371  0.75000000  0.43604809  1
  Te  Te12  1  0.76536723  0.75000000  0.28993716  1
  Te  Te13  1  0.08405681  0.07815371  0.43415539  1
  Te  Te14  1  0.68750292  0.25000000  0.61608501  1
  Te  Te15  1  0.81249708  0.25000000  0.11608501  1
  Te  Te16  1  0.73463277  0.75000000  0.78993716  1
  Te  Te17  1  0.58405681  0.92184629  0.06584461  1
  Te  Te18  1  0.91594319  0.57815371  0.56584461  1
  Te  Te19  1  0.23463277  0.25000000  0.71006284  1
  Te  Te20  1  0.26536723  0.25000000  0.21006284  1
  Te  Te21  1  0.31249708  0.75000000  0.38391499  1
  Te  Te22  1  0.08405681  0.42184629  0.43415539  1
  Te  Te23  1  0.91594319  0.92184629  0.56584461  1
  Te  Te24  1  0.41594319  0.42184629  0.93415539  1
  Te  Te25  1  0.41594319  0.07815371  0.93415539  1
  Te  Te26  1  0.18750292  0.75000000  0.88391499  1
  Te  Te27  1  0.58405681  0.57815371  0.06584461  1
