# generated using pymatgen
data_NaCo2HSe2O7
_symmetry_space_group_name_H-M   'P 1'
_cell_length_a   5.97596741
_cell_length_b   8.16832815
_cell_length_c   13.16505622
_cell_angle_alpha   90.00000000
_cell_angle_beta   90.00000000
_cell_angle_gamma   90.00000000
_symmetry_Int_Tables_number   1
_chemical_formula_structural   NaCo2HSe2O7
_chemical_formula_sum   'Na4 Co8 H4 Se8 O28'
_cell_volume   642.63461531
_cell_formula_units_Z   4
loop_
 _symmetry_equiv_pos_site_id
 _symmetry_equiv_pos_as_xyz
  1  'x, y, z'
loop_
 _atom_site_type_symbol
 _atom_site_label
 _atom_site_symmetry_multiplicity
 _atom_site_fract_x
 _atom_site_fract_y
 _atom_site_fract_z
 _atom_site_occupancy
  Na  Na0  1  0.75000000  0.12448539  0.24873891  1
  Na  Na1  1  0.75000000  0.37551461  0.74873891  1
  Na  Na2  1  0.25000000  0.87551461  0.75126109  1
  Na  Na3  1  0.25000000  0.62448539  0.25126109  1
  Co  Co4  1  0.00000000  0.50000000  0.50000000  1
  Co  Co5  1  0.50000000  -0.00000000  0.00000000  1
  Co  Co6  1  0.50000000  0.50000000  0.50000000  1
  Co  Co7  1  0.00000000  -0.00000000  0.00000000  1
  Co  Co8  1  0.25000000  0.21465424  0.60968955  1
  Co  Co9  1  0.25000000  0.28534576  0.10968955  1
  Co  Co10  1  0.75000000  0.78534576  0.39031045  1
  Co  Co11  1  0.75000000  0.71465424  0.89031045  1
  H  H12  1  0.25000000  0.97596128  0.16499873  1
  H  H13  1  0.25000000  0.52403872  0.66499873  1
  H  H14  1  0.75000000  0.02403872  0.83500127  1
  H  H15  1  0.75000000  0.47596128  0.33500127  1
  Se  Se16  1  0.25000000  0.22794206  0.82718363  1
  Se  Se17  1  0.25000000  0.27205794  0.32718363  1
  Se  Se18  1  0.75000000  0.77205794  0.17281637  1
  Se  Se19  1  0.75000000  0.72794206  0.67281637  1
  Se  Se20  1  0.75000000  0.11454687  0.52590334  1
  Se  Se21  1  0.75000000  0.38545313  0.02590334  1
  Se  Se22  1  0.25000000  0.88545313  0.47409666  1
  Se  Se23  1  0.25000000  0.61454687  0.97409666  1
  O  O24  1  0.75000000  0.54168311  0.60678337  1
  O  O25  1  0.75000000  0.95831689  0.10678337  1
  O  O26  1  0.25000000  0.45831689  0.39321663  1
  O  O27  1  0.25000000  0.04168311  0.89321663  1
  O  O28  1  0.25000000  0.97729003  0.59101731  1
  O  O29  1  0.25000000  0.52270997  0.09101731  1
  O  O30  1  0.75000000  0.02270997  0.40898269  1
  O  O31  1  0.75000000  0.47729003  0.90898269  1
  O  O32  1  0.96227913  0.69298411  0.75730642  1
  O  O33  1  0.53772087  0.80701589  0.25730642  1
  O  O34  1  0.46227913  0.30701589  0.24269358  1
  O  O35  1  0.03772087  0.19298411  0.74269358  1
  O  O36  1  0.03772087  0.30701589  0.24269358  1
  O  O37  1  0.46227913  0.19298411  0.74269358  1
  O  O38  1  0.53772087  0.69298411  0.75730642  1
  O  O39  1  0.96227913  0.80701589  0.25730642  1
  O  O40  1  0.97350864  0.24552186  0.51129166  1
  O  O41  1  0.52649136  0.25447814  0.01129166  1
  O  O42  1  0.47350864  0.75447814  0.48870834  1
  O  O43  1  0.02649136  0.74552186  0.98870834  1
  O  O44  1  0.02649136  0.75447814  0.48870834  1
  O  O45  1  0.47350864  0.74552186  0.98870834  1
  O  O46  1  0.52649136  0.24552186  0.51129166  1
  O  O47  1  0.97350864  0.25447814  0.01129166  1
  O  O48  1  0.25000000  0.04393506  0.10456249  1
  O  O49  1  0.25000000  0.45606494  0.60456249  1
  O  O50  1  0.75000000  0.95606494  0.89543751  1
  O  O51  1  0.75000000  0.54393506  0.39543751  1
