# generated using pymatgen
data_Rb2VCuS4
_symmetry_space_group_name_H-M   'P 1'
_cell_length_a   13.76106155
_cell_length_b   12.26238729
_cell_length_c   7.33926788
_cell_angle_alpha   85.26302931
_cell_angle_beta   62.62915234
_cell_angle_gamma   32.10781835
_symmetry_Int_Tables_number   1
_chemical_formula_structural   Rb2VCuS4
_chemical_formula_sum   'Rb4 V2 Cu2 S8'
_cell_volume   444.18674511
_cell_formula_units_Z   2
loop_
 _symmetry_equiv_pos_site_id
 _symmetry_equiv_pos_as_xyz
  1  'x, y, z'
loop_
 _atom_site_type_symbol
 _atom_site_label
 _atom_site_symmetry_multiplicity
 _atom_site_fract_x
 _atom_site_fract_y
 _atom_site_fract_z
 _atom_site_occupancy
  Rb  Rb0  1  0.94721600  0.94351100  0.30326200  1
  Rb  Rb1  1  0.30026200  0.30163900  0.95377800  1
  Rb  Rb2  1  0.69048100  0.70435500  0.06245400  1
  Rb  Rb3  1  0.05685300  0.04965600  0.70009500  1
  V  V4  1  0.12156900  0.12626800  0.12218200  1
  V  V5  1  0.87576000  0.87526700  0.86770600  1
  Cu  Cu6  1  0.38020900  0.37100700  0.37675500  1
  Cu  Cu7  1  0.62745900  0.62298100  0.62975600  1
  S  S8  1  0.60308600  0.25352200  0.96678000  1
  S  S9  1  0.69214800  0.95601200  0.24778800  1
  S  S10  1  0.96008600  0.68445400  0.61070600  1
  S  S11  1  0.24951800  0.60194000  0.68202100  1
  S  S12  1  0.75830000  0.38786100  0.30639700  1
  S  S13  1  0.32210200  0.03017200  0.74537600  1
  S  S14  1  0.03628800  0.32163100  0.40141500  1
  S  S15  1  0.38925500  0.75351300  0.04139700  1
