# generated using pymatgen
data_Hf(MoO4)2
_symmetry_space_group_name_H-M   'P 1'
_cell_length_a   10.03423549
_cell_length_b   10.03423534
_cell_length_c   11.69135322
_cell_angle_alpha   90.00000000
_cell_angle_beta   90.00000000
_cell_angle_gamma   120.00000363
_symmetry_Int_Tables_number   1
_chemical_formula_structural   Hf(MoO4)2
_chemical_formula_sum   'Hf6 Mo12 O48'
_cell_volume   1019.44539691
_cell_formula_units_Z   6
loop_
 _symmetry_equiv_pos_site_id
 _symmetry_equiv_pos_as_xyz
  1  'x, y, z'
loop_
 _atom_site_type_symbol
 _atom_site_label
 _atom_site_symmetry_multiplicity
 _atom_site_fract_x
 _atom_site_fract_y
 _atom_site_fract_z
 _atom_site_occupancy
  Hf  Hf0  1  0.66666700  0.33333300  0.47436155  1
  Hf  Hf1  1  0.66666700  0.33333300  0.02563845  1
  Hf  Hf2  1  0.33333300  0.66666700  0.97436155  1
  Hf  Hf3  1  -0.00000000  -0.00000000  0.00000000  1
  Hf  Hf4  1  -0.00000000  -0.00000000  0.50000000  1
  Hf  Hf5  1  0.33333300  0.66666700  0.52563845  1
  Mo  Mo6  1  0.67307907  0.65792418  0.85034224  1
  Mo  Mo7  1  0.01515490  0.67307907  0.14965776  1
  Mo  Mo8  1  0.98484510  0.32691993  0.85034224  1
  Mo  Mo9  1  0.32691993  0.98484510  0.35034224  1
  Mo  Mo10  1  0.98484510  0.65792418  0.64965776  1
  Mo  Mo11  1  0.01515490  0.34207582  0.35034224  1
  Mo  Mo12  1  0.34207582  0.01515490  0.85034224  1
  Mo  Mo13  1  0.32691993  0.34207582  0.14965776  1
  Mo  Mo14  1  0.67307907  0.01515490  0.64965776  1
  Mo  Mo15  1  0.65792418  0.98484510  0.14965776  1
  Mo  Mo16  1  0.65792418  0.67307907  0.35034224  1
  Mo  Mo17  1  0.34207582  0.32691993  0.64965776  1
  O  O18  1  0.49754456  0.33354022  0.12335371  1
  O  O19  1  0.49754456  0.16400534  0.37664629  1
  O  O20  1  0.33713864  0.50145091  0.07431674  1
  O  O21  1  0.31516709  0.36039374  0.29345511  1
  O  O22  1  0.83488240  0.83203647  0.39891085  1
  O  O23  1  0.36039374  0.04522665  0.70654489  1
  O  O24  1  0.83203647  0.83488240  0.89891085  1
  O  O25  1  0.66645978  0.16400534  0.12335371  1
  O  O26  1  0.83488240  0.00284492  0.10108915  1
  O  O27  1  0.66286136  0.16431127  0.57431674  1
  O  O28  1  0.83568873  0.33713864  0.92568326  1
  O  O29  1  0.68483291  0.63960626  0.70654489  1
  O  O30  1  0.16796353  0.16511760  0.10108915  1
  O  O31  1  0.04522665  0.68483291  0.29345511  1
  O  O32  1  0.95477335  0.63960626  0.79345511  1
  O  O33  1  0.33354022  0.49754456  0.62335371  1
  O  O34  1  0.16511760  0.16796353  0.60108915  1
  O  O35  1  0.36039374  0.31516709  0.79345511  1
  O  O36  1  0.83203647  0.99715508  0.60108915  1
  O  O37  1  0.31516709  0.95477335  0.20654489  1
  O  O38  1  0.49854909  0.66286136  0.42568326  1
  O  O39  1  0.00284492  0.16796353  0.89891085  1
  O  O40  1  0.95477335  0.31516709  0.70654489  1
  O  O41  1  0.16511760  0.99715508  0.89891085  1
  O  O42  1  0.83568873  0.49854909  0.57431674  1
  O  O43  1  0.63960626  0.68483291  0.20654489  1
  O  O44  1  0.00284492  0.83488240  0.60108915  1
  O  O45  1  0.66645978  0.50245544  0.37664629  1
  O  O46  1  0.16431127  0.50145091  0.42568326  1
  O  O47  1  0.50245544  0.83599466  0.62335371  1
  O  O48  1  0.16431127  0.66286136  0.07431674  1
  O  O49  1  0.33713864  0.83568873  0.42568326  1
  O  O50  1  0.50145091  0.33713864  0.57431674  1
  O  O51  1  0.50145091  0.16431127  0.92568326  1
  O  O52  1  0.16400534  0.49754456  0.87664629  1
  O  O53  1  0.99715508  0.16511760  0.39891085  1
  O  O54  1  0.50245544  0.66645978  0.87664629  1
  O  O55  1  0.83599466  0.33354022  0.37664629  1
  O  O56  1  0.16400534  0.66645978  0.62335371  1
  O  O57  1  0.66286136  0.49854909  0.92568326  1
  O  O58  1  0.33354022  0.83599466  0.87664629  1
  O  O59  1  0.68483291  0.04522665  0.79345511  1
  O  O60  1  0.63960626  0.95477335  0.29345511  1
  O  O61  1  0.83599466  0.50245544  0.12335371  1
  O  O62  1  0.16796353  0.00284492  0.39891085  1
  O  O63  1  0.49854909  0.83568873  0.07431674  1
  O  O64  1  0.04522665  0.36039374  0.20654489  1
  O  O65  1  0.99715508  0.83203647  0.10108915  1
