# generated using pymatgen
data_Na3H7Ru
_symmetry_space_group_name_H-M   'P 1'
_cell_length_a   9.46619946
_cell_length_b   9.46619946
_cell_length_c   5.22350217
_cell_angle_alpha   90.00000000
_cell_angle_beta   90.00000000
_cell_angle_gamma   90.00000000
_symmetry_Int_Tables_number   1
_chemical_formula_structural   Na3H7Ru
_chemical_formula_sum   'Na12 H28 Ru4'
_cell_volume   468.07245188
_cell_formula_units_Z   4
loop_
 _symmetry_equiv_pos_site_id
 _symmetry_equiv_pos_as_xyz
  1  'x, y, z'
loop_
 _atom_site_type_symbol
 _atom_site_label
 _atom_site_symmetry_multiplicity
 _atom_site_fract_x
 _atom_site_fract_y
 _atom_site_fract_z
 _atom_site_occupancy
  Na  Na0  1  0.69939063  0.96510767  0.50000000  1
  Na  Na1  1  0.30060937  0.03489233  0.50000000  1
  Na  Na2  1  0.19939063  0.53489233  0.00000000  1
  Na  Na3  1  0.80060937  0.46510767  0.00000000  1
  Na  Na4  1  0.96510767  0.69939063  0.50000000  1
  Na  Na5  1  0.03489233  0.30060937  0.50000000  1
  Na  Na6  1  0.53489233  0.19939063  0.00000000  1
  Na  Na7  1  0.46510767  0.80060937  0.00000000  1
  Na  Na8  1  0.38537729  0.38537729  0.50000000  1
  Na  Na9  1  0.61462271  0.61462271  0.50000000  1
  Na  Na10  1  0.88537729  0.11462271  0.00000000  1
  Na  Na11  1  0.11462271  0.88537729  0.00000000  1
  H  H12  1  0.60511339  0.39488661  0.69894129  1
  H  H13  1  0.39488661  0.60511339  0.69894129  1
  H  H14  1  0.10511339  0.10511339  0.19894129  1
  H  H15  1  0.89488661  0.89488661  0.19894129  1
  H  H16  1  0.39488661  0.60511339  0.30105871  1
  H  H17  1  0.60511339  0.39488661  0.30105871  1
  H  H18  1  0.89488661  0.89488661  0.80105871  1
  H  H19  1  0.10511339  0.10511339  0.80105871  1
  H  H20  1  0.74319043  0.25680957  0.20579004  1
  H  H21  1  0.25680957  0.74319043  0.20579004  1
  H  H22  1  0.24319043  0.24319043  0.70579004  1
  H  H23  1  0.75680957  0.75680957  0.70579004  1
  H  H24  1  0.25680957  0.74319043  0.79420996  1
  H  H25  1  0.74319043  0.25680957  0.79420996  1
  H  H26  1  0.75680957  0.75680957  0.29420996  1
  H  H27  1  0.24319043  0.24319043  0.29420996  1
  H  H28  1  0.56858708  0.17443462  0.50000000  1
  H  H29  1  0.43141292  0.82556538  0.50000000  1
  H  H30  1  0.06858708  0.32556538  0.00000000  1
  H  H31  1  0.93141292  0.67443462  0.00000000  1
  H  H32  1  0.17443462  0.56858708  0.50000000  1
  H  H33  1  0.82556538  0.43141292  0.50000000  1
  H  H34  1  0.32556538  0.06858708  0.00000000  1
  H  H35  1  0.67443462  0.93141292  0.00000000  1
  H  H36  1  0.82559912  0.17440088  0.50000000  1
  H  H37  1  0.17440088  0.82559912  0.50000000  1
  H  H38  1  0.32559912  0.32559912  0.00000000  1
  H  H39  1  0.67440088  0.67440088  0.00000000  1
  Ru  Ru40  1  0.70233430  0.29766570  0.50000000  1
  Ru  Ru41  1  0.29766570  0.70233430  0.50000000  1
  Ru  Ru42  1  0.20233430  0.20233430  0.00000000  1
  Ru  Ru43  1  0.79766570  0.79766570  0.00000000  1
