# generated using pymatgen
data_PS
_symmetry_space_group_name_H-M   'P 1'
_cell_length_a   6.82832243
_cell_length_b   6.82832184
_cell_length_c   8.96135122
_cell_angle_alpha   80.42375164
_cell_angle_beta   80.42376042
_cell_angle_gamma   84.92497697
_symmetry_Int_Tables_number   1
_chemical_formula_structural   PS
_chemical_formula_sum   'P8 S8'
_cell_volume   405.47341627
_cell_formula_units_Z   8
loop_
 _symmetry_equiv_pos_site_id
 _symmetry_equiv_pos_as_xyz
  1  'x, y, z'
loop_
 _atom_site_type_symbol
 _atom_site_label
 _atom_site_symmetry_multiplicity
 _atom_site_fract_x
 _atom_site_fract_y
 _atom_site_fract_z
 _atom_site_occupancy
  P  P0  1  0.19704518  0.79781085  0.42952494  1
  P  P1  1  0.20218915  0.80295482  0.07047506  1
  P  P2  1  0.80295482  0.20218915  0.57047506  1
  P  P3  1  0.79781085  0.19704518  0.92952494  1
  P  P4  1  0.52882934  0.76540975  0.13353023  1
  P  P5  1  0.23459025  0.47117066  0.36646977  1
  P  P6  1  0.47117066  0.23459025  0.86646977  1
  P  P7  1  0.76540975  0.52882934  0.63353023  1
  S  S8  1  0.53035030  0.46964970  0.25000000  1
  S  S9  1  0.46964970  0.53035030  0.75000000  1
  S  S10  1  0.05135006  0.94864994  0.25000000  1
  S  S11  1  0.94864994  0.05135006  0.75000000  1
  S  S12  1  0.48049346  0.89898598  0.33294453  1
  S  S13  1  0.10101402  0.51950654  0.16705547  1
  S  S14  1  0.51950654  0.10101402  0.66705547  1
  S  S15  1  0.89898598  0.48049346  0.83294453  1
