# generated using pymatgen
data_CdI2
_symmetry_space_group_name_H-M   'P 1'
_cell_length_a   4.28486061
_cell_length_b   4.28486027
_cell_length_c   78.63030674
_cell_angle_alpha   90.00000000
_cell_angle_beta   90.00000000
_cell_angle_gamma   119.99999457
_symmetry_Int_Tables_number   1
_chemical_formula_structural   CdI2
_chemical_formula_sum   'Cd11 I22'
_cell_volume   1250.24172146
_cell_formula_units_Z   11
loop_
 _symmetry_equiv_pos_site_id
 _symmetry_equiv_pos_as_xyz
  1  'x, y, z'
loop_
 _atom_site_type_symbol
 _atom_site_label
 _atom_site_symmetry_multiplicity
 _atom_site_fract_x
 _atom_site_fract_y
 _atom_site_fract_z
 _atom_site_occupancy
  Cd  Cd0  1  0.66666700  0.33333300  0.20438480  1
  Cd  Cd1  1  0.00000000  -0.00000000  0.84081045  1
  Cd  Cd2  1  0.66666700  0.33333300  0.02232436  1
  Cd  Cd3  1  0.00000000  -0.00000000  0.93154479  1
  Cd  Cd4  1  0.00000000  -0.00000000  0.29537825  1
  Cd  Cd5  1  0.66666700  0.33333300  0.38668393  1
  Cd  Cd6  1  0.00000000  0.00000000  0.56844827  1
  Cd  Cd7  1  0.00000000  -0.00000000  0.11346576  1
  Cd  Cd8  1  0.66666700  0.33333300  0.47767752  1
  Cd  Cd9  1  0.00000000  -0.00000000  0.65916697  1
  Cd  Cd10  1  0.00000000  -0.00000000  0.75005216  1
  I  I11  1  0.33333300  0.66666700  0.59036344  1
  I  I12  1  0.00000000  -0.00000000  0.45576570  1
  I  I13  1  0.33333300  0.66666700  0.40863938  1
  I  I14  1  0.00000000  -0.00000000  0.18261395  1
  I  I15  1  0.33333300  0.66666700  0.86268771  1
  I  I16  1  0.33333300  0.66666700  0.95344860  1
  I  I17  1  0.66666700  0.33333300  0.27344573  1
  I  I18  1  0.33333300  0.66666700  0.77192654  1
  I  I19  1  0.33333300  0.66666700  0.04423694  1
  I  I20  1  0.33333300  0.66666700  0.22621664  1
  I  I21  1  0.66666700  0.33333300  0.09160357  1
  I  I22  1  0.00000000  -0.00000000  0.00041857  1
  I  I23  1  0.33333300  0.66666700  0.31732770  1
  I  I24  1  0.66666700  0.33333300  0.54653885  1
  I  I25  1  0.66666700  0.33333300  0.72820233  1
  I  I26  1  0.00000000  -0.00000000  0.36472642  1
  I  I27  1  0.33333300  0.66666700  0.68102389  1
  I  I28  1  0.66666700  0.33333300  0.90963455  1
  I  I29  1  0.66666700  0.33333300  0.81896336  1
  I  I30  1  0.33333300  0.66666700  0.13539080  1
  I  I31  1  0.66666700  0.33333300  0.63730330  1
  I  I32  1  0.33333300  0.66666700  0.49958578  1
