# generated using pymatgen
data_Hf(ClO4)4
_symmetry_space_group_name_H-M   'P 1'
_cell_length_a   7.47433029
_cell_length_b   7.47433029
_cell_length_c   13.19743228
_cell_angle_alpha   73.55229691
_cell_angle_beta   73.55229691
_cell_angle_gamma   62.85369794
_symmetry_Int_Tables_number   1
_chemical_formula_structural   Hf(ClO4)4
_chemical_formula_sum   'Hf2 Cl8 O32'
_cell_volume   618.89697195
_cell_formula_units_Z   2
loop_
 _symmetry_equiv_pos_site_id
 _symmetry_equiv_pos_as_xyz
  1  'x, y, z'
loop_
 _atom_site_type_symbol
 _atom_site_label
 _atom_site_symmetry_multiplicity
 _atom_site_fract_x
 _atom_site_fract_y
 _atom_site_fract_z
 _atom_site_occupancy
  Hf  Hf0  1  0.59617230  0.65145803  0.41061088  1
  Hf  Hf1  1  0.65145803  0.59617230  0.91061088  1
  Cl  Cl2  1  0.28830460  0.84635593  0.57526191  1
  Cl  Cl3  1  0.60228540  0.00397365  0.82076555  1
  Cl  Cl4  1  0.24832151  0.63365271  0.00487059  1
  Cl  Cl5  1  0.41235240  0.95428216  0.24135556  1
  Cl  Cl6  1  0.63365271  0.24832151  0.50487059  1
  Cl  Cl7  1  0.84635593  0.28830460  0.07526191  1
  Cl  Cl8  1  0.00397365  0.60228540  0.32076555  1
  Cl  Cl9  1  0.95428216  0.41235240  0.74135556  1
  O  O10  1  0.38723361  0.69932062  0.03596872  1
  O  O11  1  0.75997210  0.03787943  0.74161762  1
  O  O12  1  0.18078990  0.43262952  0.34723710  1
  O  O13  1  0.96196685  0.51643914  0.82274151  1
  O  O14  1  0.68508491  0.86490635  0.91985040  1
  O  O15  1  0.73818586  0.28289817  0.99513913  1
  O  O16  1  0.51758726  0.99087027  0.13690833  1
  O  O17  1  0.44546364  0.73213600  0.27463058  1
  O  O18  1  0.55861544  0.38365176  0.40330480  1
  O  O19  1  0.05558993  0.16403536  0.05349605  1
  O  O20  1  0.28289817  0.73818586  0.49513913  1
  O  O21  1  0.24581466  0.74703083  0.68049106  1
  O  O22  1  0.06775250  0.80182932  0.98222064  1
  O  O23  1  0.69932062  0.38723361  0.53596872  1
  O  O24  1  0.53746190  0.86491709  0.78920534  1
  O  O25  1  0.47091881  0.22115312  0.58239874  1
  O  O26  1  0.86490635  0.68508491  0.41985040  1
  O  O27  1  0.08176985  0.20351828  0.75952480  1
  O  O28  1  0.80920398  0.51161588  0.04430169  1
  O  O29  1  0.43262952  0.18078990  0.84723710  1
  O  O30  1  0.38365176  0.55861544  0.90330480  1
  O  O31  1  0.80182932  0.06775250  0.48222064  1
  O  O32  1  0.73213600  0.44546364  0.77463058  1
  O  O33  1  0.99087027  0.51758726  0.63690833  1
  O  O34  1  0.16403536  0.05558993  0.55349605  1
  O  O35  1  0.22115312  0.47091881  0.08239874  1
  O  O36  1  0.74703083  0.24581466  0.18049106  1
  O  O37  1  0.51643914  0.96196685  0.32274151  1
  O  O38  1  0.51161588  0.80920398  0.54430169  1
  O  O39  1  0.20351828  0.08176985  0.25952480  1
  O  O40  1  0.03787943  0.75997210  0.24161762  1
  O  O41  1  0.86491709  0.53746190  0.28920534  1
