# generated using pymatgen
data_HI
_symmetry_space_group_name_H-M   'P 1'
_cell_length_a   8.45054402
_cell_length_b   9.16306725
_cell_length_c   8.43484952
_cell_angle_alpha   117.20304179
_cell_angle_beta   90.32152248
_cell_angle_gamma   117.37841753
_symmetry_Int_Tables_number   1
_chemical_formula_structural   HI
_chemical_formula_sum   'H8 I8'
_cell_volume   496.18967643
_cell_formula_units_Z   8
loop_
 _symmetry_equiv_pos_site_id
 _symmetry_equiv_pos_as_xyz
  1  'x, y, z'
loop_
 _atom_site_type_symbol
 _atom_site_label
 _atom_site_symmetry_multiplicity
 _atom_site_fract_x
 _atom_site_fract_y
 _atom_site_fract_z
 _atom_site_occupancy
  H  H0  1  0.24558550  0.01081035  0.56637451  1
  H  H1  1  0.55609351  0.48848175  0.73385338  1
  H  H2  1  0.75437191  0.98945919  0.43333257  1
  H  H3  1  0.44374185  0.51178029  0.26623222  1
  H  H4  1  0.56160619  0.00013894  0.75959745  1
  H  H5  1  0.75911406  0.49955758  0.06190839  1
  H  H6  1  0.43874885  0.00002187  0.24050523  1
  H  H7  1  0.24098111  0.50056378  0.93867759  1
  I  I8  1  0.24335556  0.01383809  0.76175914  1
  I  I9  1  0.74783812  0.48494714  0.72819315  1
  I  I10  1  0.75647006  0.98658066  0.23800542  1
  I  I11  1  0.25215864  0.51553324  0.27137448  1
  I  I12  1  0.75539270  0.00062846  0.76259284  1
  I  I13  1  0.76262500  0.50119711  0.25653085  1
  I  I14  1  0.24433729  -0.00164771  0.23747203  1
  I  I15  1  0.23758063  0.49811025  0.74359075  1
