# generated using pymatgen
data_Ba5Si8O21
_symmetry_space_group_name_H-M   'P 1'
_cell_length_a   16.64585804
_cell_length_b   16.64585804
_cell_length_c   13.96882683
_cell_angle_alpha   81.99735202
_cell_angle_beta   81.99735202
_cell_angle_gamma   16.29355419
_symmetry_Int_Tables_number   1
_chemical_formula_structural   Ba5Si8O21
_chemical_formula_sum   'Ba10 Si16 O42'
_cell_volume   1075.12280162
_cell_formula_units_Z   2
loop_
 _symmetry_equiv_pos_site_id
 _symmetry_equiv_pos_as_xyz
  1  'x, y, z'
loop_
 _atom_site_type_symbol
 _atom_site_label
 _atom_site_symmetry_multiplicity
 _atom_site_fract_x
 _atom_site_fract_y
 _atom_site_fract_z
 _atom_site_occupancy
  Ba  Ba0  1  0.76490249  0.79877380  0.88365388  1
  Ba  Ba1  1  0.37488517  0.40141252  0.94525589  1
  Ba  Ba2  1  0.23509751  0.20122620  0.11634612  1
  Ba  Ba3  1  0.62511483  0.59858748  0.05474411  1
  Ba  Ba4  1  0.40141252  0.37488517  0.44525589  1
  Ba  Ba5  1  0.00000000  0.00000000  0.50000000  1
  Ba  Ba6  1  0.79877380  0.76490249  0.38365388  1
  Ba  Ba7  1  0.00000000  0.00000000  -0.00000000  1
  Ba  Ba8  1  0.20122620  0.23509751  0.61634612  1
  Ba  Ba9  1  0.59858748  0.62511483  0.55474411  1
  Si  Si10  1  0.86311271  0.75096575  0.10178798  1
  Si  Si11  1  0.75096575  0.86311271  0.60178798  1
  Si  Si12  1  0.60694275  0.72324331  0.79053845  1
  Si  Si13  1  0.64340528  0.49934176  0.33848334  1
  Si  Si14  1  0.72324331  0.60694275  0.29053845  1
  Si  Si15  1  0.49934176  0.64340528  0.83848334  1
  Si  Si16  1  0.97258911  0.12606984  0.72277107  1
  Si  Si17  1  0.39305725  0.27675669  0.20946155  1
  Si  Si18  1  0.35659472  0.50065824  0.66151666  1
  Si  Si19  1  0.24903425  0.13688729  0.39821202  1
  Si  Si20  1  0.12606984  0.97258911  0.22277107  1
  Si  Si21  1  0.50065824  0.35659472  0.16151666  1
  Si  Si22  1  0.87393016  0.02741089  0.77722893  1
  Si  Si23  1  0.02741089  0.87393016  0.27722893  1
  Si  Si24  1  0.27675669  0.39305725  0.70946155  1
  Si  Si25  1  0.13688729  0.24903425  0.89821202  1
  O  O26  1  0.16161807  0.97321500  0.80957113  1
  O  O27  1  0.46891309  0.65672833  0.24003882  1
  O  O28  1  0.63940150  0.59931484  0.35247012  1
  O  O29  1  0.05642759  0.94357241  0.25000000  1
  O  O30  1  0.42070449  0.18861628  0.64637618  1
  O  O31  1  0.97321500  0.16161807  0.30957113  1
  O  O32  1  0.65672833  0.46891309  0.74003882  1
  O  O33  1  0.93483860  0.70438594  0.69727301  1
  O  O34  1  0.18861628  0.42070449  0.14637618  1
  O  O35  1  0.13985510  0.17957165  0.99277925  1
  O  O36  1  0.05536697  0.07410916  0.11411544  1
  O  O37  1  0.40068516  0.36059850  0.14752988  1
  O  O38  1  0.06516140  0.29561406  0.30272699  1
  O  O39  1  0.22923494  0.24821571  0.41850936  1
  O  O40  1  0.07410916  0.05536697  0.61411544  1
  O  O41  1  0.94463303  0.92589084  0.88588456  1
  O  O42  1  0.02678500  0.83838193  0.69042887  1
  O  O43  1  0.29561406  0.06516140  0.80272699  1
  O  O44  1  0.46049978  0.45247392  0.56315266  1
  O  O45  1  0.94357241  0.05642759  0.75000000  1
  O  O46  1  0.82042835  0.86014490  0.50722075  1
  O  O47  1  0.81138372  0.57929551  0.85362382  1
  O  O48  1  0.53108691  0.34327167  0.75996118  1
  O  O49  1  0.75178429  0.77076506  0.08149064  1
  O  O50  1  0.54752608  0.53950022  0.93684734  1
  O  O51  1  0.31697871  0.34750643  0.32068483  1
  O  O52  1  0.34327167  0.53108691  0.25996118  1
  O  O53  1  0.59931484  0.63940150  0.85247012  1
  O  O54  1  0.53950022  0.54752608  0.43684734  1
  O  O55  1  0.77076506  0.75178429  0.58149064  1
  O  O56  1  0.36059850  0.40068516  0.64752988  1
  O  O57  1  0.86014490  0.82042835  0.00722075  1
  O  O58  1  0.45247392  0.46049978  0.06315266  1
  O  O59  1  0.68302129  0.65249357  0.67931517  1
  O  O60  1  0.65249357  0.68302129  0.17931517  1
  O  O61  1  0.70438594  0.93483860  0.19727301  1
  O  O62  1  0.92589084  0.94463303  0.38588456  1
  O  O63  1  0.17957165  0.13985510  0.49277925  1
  O  O64  1  0.34750643  0.31697871  0.82068483  1
  O  O65  1  0.83838193  0.02678500  0.19042887  1
  O  O66  1  0.57929551  0.81138372  0.35362382  1
  O  O67  1  0.24821571  0.22923494  0.91850936  1
