# generated using pymatgen
data_PbSeO3
_symmetry_space_group_name_H-M   'P 1'
_cell_length_a   8.07301543
_cell_length_b   8.84856559
_cell_length_c   9.18932098
_cell_angle_alpha   76.60234519
_cell_angle_beta   90.00000000
_cell_angle_gamma   90.00000000
_symmetry_Int_Tables_number   1
_chemical_formula_structural   PbSeO3
_chemical_formula_sum   'Pb8 Se8 O24'
_cell_volume   638.57087374
_cell_formula_units_Z   8
loop_
 _symmetry_equiv_pos_site_id
 _symmetry_equiv_pos_as_xyz
  1  'x, y, z'
loop_
 _atom_site_type_symbol
 _atom_site_label
 _atom_site_symmetry_multiplicity
 _atom_site_fract_x
 _atom_site_fract_y
 _atom_site_fract_z
 _atom_site_occupancy
  Pb  Pb0  1  0.81875634  0.27208029  0.60243160  1
  Pb  Pb1  1  0.83548186  0.82484561  0.00505781  1
  Pb  Pb2  1  0.33548186  0.67515439  0.99494219  1
  Pb  Pb3  1  0.16451814  0.17515439  0.99494219  1
  Pb  Pb4  1  0.31875634  0.22791971  0.39756840  1
  Pb  Pb5  1  0.68124366  0.77208029  0.60243160  1
  Pb  Pb6  1  0.66451814  0.32484561  0.00505781  1
  Pb  Pb7  1  0.18124366  0.72791971  0.39756840  1
  Se  Se8  1  0.89870524  0.05562566  0.32190253  1
  Se  Se9  1  0.50638655  0.05136725  0.79773973  1
  Se  Se10  1  0.99361345  0.55136725  0.79773973  1
  Se  Se11  1  0.00638655  0.44863275  0.20226027  1
  Se  Se12  1  0.10129476  0.94437434  0.67809747  1
  Se  Se13  1  0.60129476  0.55562566  0.32190253  1
  Se  Se14  1  0.49361345  0.94863275  0.20226027  1
  Se  Se15  1  0.39870524  0.44437434  0.67809747  1
  O  O16  1  0.34451117  0.63386932  0.65259156  1
  O  O17  1  0.17774911  0.37466594  0.13090316  1
  O  O18  1  0.55199061  0.10221440  0.61297619  1
  O  O19  1  0.88951342  0.95990372  0.66849565  1
  O  O20  1  0.94800939  0.60221440  0.61297619  1
  O  O21  1  0.94505164  0.35631228  0.84465798  1
  O  O22  1  0.11048658  0.04009628  0.33150435  1
  O  O23  1  0.37480320  0.37444755  0.86806849  1
  O  O24  1  0.05199061  0.39778560  0.38702381  1
  O  O25  1  0.87480320  0.12555245  0.13193151  1
  O  O26  1  0.38951342  0.54009628  0.33150435  1
  O  O27  1  0.05494836  0.64368772  0.15534202  1
  O  O28  1  0.15548883  0.13386932  0.65259156  1
  O  O29  1  0.65548883  0.36613068  0.34740844  1
  O  O30  1  0.44505164  0.14368772  0.15534202  1
  O  O31  1  0.61048658  0.45990372  0.66849565  1
  O  O32  1  0.55494836  0.85631228  0.84465798  1
  O  O33  1  0.12519680  0.87444755  0.86806849  1
  O  O34  1  0.67774911  0.12533406  0.86909684  1
  O  O35  1  0.82225089  0.62533406  0.86909684  1
  O  O36  1  0.32225089  0.87466594  0.13090316  1
  O  O37  1  0.44800939  0.89778560  0.38702381  1
  O  O38  1  0.84451117  0.86613068  0.34740844  1
  O  O39  1  0.62519680  0.62555245  0.13193151  1
