# generated using pymatgen
data_Gd5AgSe8
_symmetry_space_group_name_H-M   'P 1'
_cell_length_a   7.61331908
_cell_length_b   7.61331910
_cell_length_c   7.61331933
_cell_angle_alpha   109.76909980
_cell_angle_beta   109.76909026
_cell_angle_gamma   108.87710031
_symmetry_Int_Tables_number   1
_chemical_formula_structural   Gd5AgSe8
_chemical_formula_sum   'Gd5 Ag1 Se8'
_cell_volume   339.67629537
_cell_formula_units_Z   1
loop_
 _symmetry_equiv_pos_site_id
 _symmetry_equiv_pos_as_xyz
  1  'x, y, z'
loop_
 _atom_site_type_symbol
 _atom_site_label
 _atom_site_symmetry_multiplicity
 _atom_site_fract_x
 _atom_site_fract_y
 _atom_site_fract_z
 _atom_site_occupancy
  Gd  Gd0  1  0.11372000  0.74762500  0.87148100  1
  Gd  Gd1  1  0.25237500  0.62385600  0.36609500  1
  Gd  Gd2  1  0.37614400  0.24223900  0.62851900  1
  Gd  Gd3  1  0.62500000  0.37500000  0.25000000  1
  Gd  Gd4  1  0.75776100  0.88628000  0.13390500  1
  Ag  Ag5  1  0.87500000  0.12500000  0.75000000  1
  Se  Se6  1  0.99409500  0.85508600  0.50079200  1
  Se  Se7  1  0.14491400  0.14570600  0.13900900  1
  Se  Se8  1  0.50669700  0.00590500  0.36099100  1
  Se  Se9  1  0.37298500  0.51460600  0.00755700  1
  Se  Se10  1  0.63457200  0.62701500  0.64162100  1
  Se  Se11  1  0.48539400  0.99295000  0.85837900  1
  Se  Se12  1  0.85429400  0.49330300  0.99920800  1
  Se  Se13  1  0.00705000  0.36542800  0.49244300  1
