# generated using pymatgen
data_CdI2
_symmetry_space_group_name_H-M   'P 1'
_cell_length_a   4.28784774
_cell_length_b   4.28784786
_cell_length_c   64.53746037
_cell_angle_alpha   90.00000000
_cell_angle_beta   90.00000000
_cell_angle_gamma   119.99999907
_symmetry_Int_Tables_number   1
_chemical_formula_structural   CdI2
_chemical_formula_sum   'Cd9 I18'
_cell_volume   1027.59321967
_cell_formula_units_Z   9
loop_
 _symmetry_equiv_pos_site_id
 _symmetry_equiv_pos_as_xyz
  1  'x, y, z'
loop_
 _atom_site_type_symbol
 _atom_site_label
 _atom_site_symmetry_multiplicity
 _atom_site_fract_x
 _atom_site_fract_y
 _atom_site_fract_z
 _atom_site_occupancy
  Cd  Cd0  1  0.66666700  0.33333300  0.58193398  1
  Cd  Cd1  1  0.66666700  0.33333300  0.80652091  1
  Cd  Cd2  1  -0.00000000  -0.00000000  0.47082425  1
  Cd  Cd3  1  0.66666700  0.33333300  0.02928066  1
  Cd  Cd4  1  0.00000000  -0.00000000  0.13933901  1
  Cd  Cd5  1  -0.00000000  -0.00000000  0.36022104  1
  Cd  Cd6  1  0.66666700  0.33333300  0.69455302  1
  Cd  Cd7  1  0.66666700  0.33333300  0.91788782  1
  Cd  Cd8  1  0.66666700  0.33333300  0.24962003  1
  I  I9  1  0.66666700  0.33333300  0.33358808  1
  I  I10  1  0.33333300  0.66666700  0.72122030  1
  I  I11  1  -0.00000000  -0.00000000  0.55530513  1
  I  I12  1  -0.00000000  -0.00000000  0.77988140  1
  I  I13  1  -0.00000000  -0.00000000  0.22300884  1
  I  I14  1  0.33333300  0.66666700  0.27619515  1
  I  I15  1  -0.00000000  -0.00000000  0.66775451  1
  I  I16  1  0.33333300  0.66666700  0.05585505  1
  I  I17  1  0.33333300  0.66666700  0.60848359  1
  I  I18  1  0.33333300  0.66666700  0.94467397  1
  I  I19  1  0.66666700  0.33333300  0.11272551  1
  I  I20  1  -0.00000000  -0.00000000  0.00266613  1
  I  I21  1  0.66666700  0.33333300  0.44419391  1
  I  I22  1  0.33333300  0.66666700  0.16589126  1
  I  I23  1  0.33333300  0.66666700  0.38681671  1
  I  I24  1  0.33333300  0.66666700  0.83310082  1
  I  I25  1  0.33333300  0.66666700  0.49736737  1
  I  I26  1  -0.00000000  -0.00000000  0.89109155  1
