# generated using pymatgen
data_Ga(HO)3
_symmetry_space_group_name_H-M   'P 1'
_cell_length_a   6.45947894
_cell_length_b   6.45947894
_cell_length_c   6.45947845
_cell_angle_alpha   109.70107646
_cell_angle_beta   109.70107651
_cell_angle_gamma   109.70106539
_symmetry_Int_Tables_number   1
_chemical_formula_structural   Ga(HO)3
_chemical_formula_sum   'Ga4 H12 O12'
_cell_volume   205.69269239
_cell_formula_units_Z   4
loop_
 _symmetry_equiv_pos_site_id
 _symmetry_equiv_pos_as_xyz
  1  'x, y, z'
loop_
 _atom_site_type_symbol
 _atom_site_label
 _atom_site_symmetry_multiplicity
 _atom_site_fract_x
 _atom_site_fract_y
 _atom_site_fract_z
 _atom_site_occupancy
  Ga  Ga0  1  0.50000000  -0.00000000  -0.00000000  1
  Ga  Ga1  1  0.50000000  0.50000000  0.50000000  1
  Ga  Ga2  1  -0.00000000  -0.00000000  0.50000000  1
  Ga  Ga3  1  -0.00000000  0.50000000  -0.00000000  1
  H  H4  1  0.81611866  0.45052926  0.26809262  1
  H  H5  1  0.04272391  0.30057086  0.34395148  1
  H  H6  1  0.95727609  0.69942914  0.65604852  1
  H  H7  1  0.18388134  0.54947074  0.73190738  1
  H  H8  1  0.73190738  0.18388134  0.54947074  1
  H  H9  1  0.65604852  0.95727609  0.69942914  1
  H  H10  1  0.34395148  0.04272391  0.30057086  1
  H  H11  1  0.26809262  0.81611866  0.45052926  1
  H  H12  1  0.30057086  0.34395148  0.04272391  1
  H  H13  1  0.45052926  0.26809262  0.81611866  1
  H  H14  1  0.54947074  0.73190738  0.18388134  1
  H  H15  1  0.69942914  0.65604852  0.95727609  1
  O  O16  1  0.81916297  0.31551564  0.14013313  1
  O  O17  1  0.17572844  0.30758162  0.48511242  1
  O  O18  1  0.82427156  0.69241838  0.51488758  1
  O  O19  1  0.18083703  0.68448436  0.85986687  1
  O  O20  1  0.85986687  0.18083703  0.68448436  1
  O  O21  1  0.51488758  0.82427156  0.69241838  1
  O  O22  1  0.48511242  0.17572844  0.30758162  1
  O  O23  1  0.14013313  0.81916297  0.31551564  1
  O  O24  1  0.30758162  0.48511242  0.17572844  1
  O  O25  1  0.31551564  0.14013313  0.81916297  1
  O  O26  1  0.68448436  0.85986687  0.18083703  1
  O  O27  1  0.69241838  0.51488758  0.82427156  1
