# generated using pymatgen
data_Nd10Si10BrN17O9
_symmetry_space_group_name_H-M   'P 1'
_cell_length_a   10.48512787
_cell_length_b   11.19050159
_cell_length_c   11.58971769
_cell_angle_alpha   90.05788290
_cell_angle_beta   90.11522819
_cell_angle_gamma   90.05538553
_symmetry_Int_Tables_number   1
_chemical_formula_structural   Nd10Si10BrN17O9
_chemical_formula_sum   'Nd20 Si20 Br2 N34 O18'
_cell_volume   1359.86200019
_cell_formula_units_Z   2
loop_
 _symmetry_equiv_pos_site_id
 _symmetry_equiv_pos_as_xyz
  1  'x, y, z'
loop_
 _atom_site_type_symbol
 _atom_site_label
 _atom_site_symmetry_multiplicity
 _atom_site_fract_x
 _atom_site_fract_y
 _atom_site_fract_z
 _atom_site_occupancy
  Nd  Nd0  1  0.00656591  0.99988884  0.83058160  1
  Nd  Nd1  1  0.89342435  0.36782984  0.00031634  1
  Nd  Nd2  1  0.86226133  0.11338286  0.50241524  1
  Nd  Nd3  1  0.86190205  0.60236940  0.75945000  1
  Nd  Nd4  1  0.86241014  0.60311573  0.24211780  1
  Nd  Nd5  1  0.64046130  0.09801995  0.23943463  1
  Nd  Nd6  1  0.63536296  0.10222977  0.76128687  1
  Nd  Nd7  1  0.63749055  0.61676419  0.49733729  1
  Nd  Nd8  1  0.62399456  0.87030281  0.00378945  1
  Nd  Nd9  1  0.50123454  0.49868477  0.17290391  1
  Nd  Nd10  1  0.49725865  0.49713372  0.82687892  1
  Nd  Nd11  1  0.35723976  0.12999649  0.99627552  1
  Nd  Nd12  1  0.37507365  0.38120382  0.50277329  1
  Nd  Nd13  1  0.35899291  0.89663627  0.23516250  1
  Nd  Nd14  1  0.35480035  0.90033837  0.76436697  1
  Nd  Nd15  1  0.14139788  0.39986779  0.76877056  1
  Nd  Nd16  1  0.14232471  0.40097300  0.23030684  1
  Nd  Nd17  1  0.12449958  0.88008271  0.49803262  1
  Nd  Nd18  1  0.12973936  0.62781653  0.99973736  1
  Nd  Nd19  1  0.00846597  0.00074763  0.16933892  1
  Si  Si20  1  0.88519559  0.25448559  0.24600040  1
  Si  Si21  1  0.88265264  0.25435634  0.75471402  1
  Si  Si22  1  0.85015517  0.85673945  0.36438582  1
  Si  Si23  1  0.84761384  0.85573612  0.63765619  1
  Si  Si24  1  0.78525690  0.11073689  0.00028240  1
  Si  Si25  1  0.71320652  0.60803679  0.99961815  1
  Si  Si26  1  0.65048487  0.35519833  0.63528282  1
  Si  Si27  1  0.65367641  0.35354344  0.36422369  1
  Si  Si28  1  0.61617256  0.76055256  0.24363119  1
  Si  Si29  1  0.61428739  0.75537727  0.75605813  1
  Si  Si30  1  0.38505440  0.24443890  0.24543378  1
  Si  Si31  1  0.38300836  0.23909591  0.75467975  1
  Si  Si32  1  0.34892202  0.64667082  0.63487578  1
  Si  Si33  1  0.35213609  0.64522673  0.36578453  1
  Si  Si34  1  0.28234734  0.39041792  0.00005444  1
  Si  Si35  1  0.21324642  0.89256751  0.99972561  1
  Si  Si36  1  0.15109722  0.14814494  0.36483871  1
  Si  Si37  1  0.14853009  0.14726956  0.63319592  1
  Si  Si38  1  0.11714246  0.73855608  0.24486779  1
  Si  Si39  1  0.11502559  0.73816168  0.75473218  1
  Br  Br40  1  0.94768725  0.53386434  0.50102045  1
  Br  Br41  1  0.54336770  0.03359915  0.49940378  1
  N  N42  1  0.98054718  0.81119321  0.28683045  1
  N  N43  1  0.97524060  0.80853679  0.71774839  1
  N  N44  1  0.89658850  0.88758419  0.50170640  1
  N  N45  1  0.82987583  0.18253432  0.12232304  1
  N  N46  1  0.82932320  0.18382346  0.87923013  1
  N  N47  1  0.76893192  0.25110816  0.64992686  1
  N  N48  1  0.77410558  0.25087057  0.35278868  1
  N  N49  1  0.72661452  0.75256717  0.64972549  1
  N  N50  1  0.73101242  0.75247102  0.35008120  1
  N  N51  1  0.67355260  0.68061740  0.12226135  1
  N  N52  1  0.67108633  0.68340095  0.87873083  1
  N  N53  1  0.60417062  0.38852660  0.49897826  1
  N  N54  1  0.58200474  0.89998216  0.19736852  1
  N  N55  1  0.52721030  0.30431344  0.28320569  1
  N  N56  1  0.52097540  0.30816298  0.71219718  1
  N  N57  1  0.47756843  0.68962193  0.28085802  1
  N  N58  1  0.47151559  0.69347913  0.72331390  1
  N  N59  1  0.41477954  0.09997445  0.80277327  1
  N  N60  1  0.40710204  0.61805711  0.50113705  1
  N  N61  1  0.33660802  0.32139996  0.12261241  1
  N  N62  1  0.33445739  0.32374364  0.87625249  1
  N  N63  1  0.26843790  0.25025237  0.64769537  1
  N  N64  1  0.27292760  0.24974948  0.35218673  1
  N  N65  1  0.22817179  0.74956052  0.64583594  1
  N  N66  1  0.23300640  0.74946082  0.35182562  1
  N  N67  1  0.17370617  0.81804573  0.12328728  1
  N  N68  1  0.17273338  0.81897831  0.87557801  1
  N  N69  1  0.15159619  0.03368411  0.00017215  1
  N  N70  1  0.11995272  0.40506497  0.00127620  1
  N  N71  1  0.09242793  0.12053572  0.49824682  1
  N  N72  1  0.08131071  0.59951555  0.19956761  1
  N  N73  1  0.08155428  0.59869798  0.80022521  1
  N  N74  1  0.02928798  0.19501115  0.27639051  1
  N  N75  1  0.02397099  0.19249436  0.71937631  1
  O  O76  1  0.91218300  0.39363215  0.20309744  1
  O  O77  1  0.91180064  0.39316984  0.79722666  1
  O  O78  1  0.86948374  0.58174330  0.99728200  1
  O  O79  1  0.84465159  0.97259188  0.99966192  1
  O  O80  1  0.81541381  0.99086510  0.68985538  1
  O  O81  1  0.82093873  0.99350979  0.31425445  1
  O  O82  1  0.68231955  0.48831649  0.30944587  1
  O  O83  1  0.67942700  0.49001289  0.69023209  1
  O  O84  1  0.64676851  0.47319474  0.99881622  1
  O  O85  1  0.62848759  0.08786088  0.00006550  1
  O  O86  1  0.58361358  0.89397072  0.79913806  1
  O  O87  1  0.41336952  0.10633865  0.20000829  1
  O  O88  1  0.37548791  0.90680421  0.99957681  1
  O  O89  1  0.34826243  0.52805980  0.00112454  1
  O  O90  1  0.31794720  0.50850951  0.68198834  1
  O  O91  1  0.32056706  0.50712357  0.31835835  1
  O  O92  1  0.18574457  0.01112267  0.31730757  1
  O  O93  1  0.18001843  0.00875332  0.67909903  1
