# generated using pymatgen
data_Rb2U2O7
_symmetry_space_group_name_H-M   'P 1'
_cell_length_a   6.92738716
_cell_length_b   7.42828834
_cell_length_c   7.99701206
_cell_angle_alpha   105.69458713
_cell_angle_beta   89.69465168
_cell_angle_gamma   99.13481621
_symmetry_Int_Tables_number   1
_chemical_formula_structural   Rb2U2O7
_chemical_formula_sum   'Rb4 U4 O14'
_cell_volume   390.84200223
_cell_formula_units_Z   2
loop_
 _symmetry_equiv_pos_site_id
 _symmetry_equiv_pos_as_xyz
  1  'x, y, z'
loop_
 _atom_site_type_symbol
 _atom_site_label
 _atom_site_symmetry_multiplicity
 _atom_site_fract_x
 _atom_site_fract_y
 _atom_site_fract_z
 _atom_site_occupancy
  Rb  Rb0  1  0.23968624  0.48678822  0.62563967  1
  Rb  Rb1  1  0.26292160  0.48889158  0.11813910  1
  Rb  Rb2  1  0.76031376  0.51321178  0.37436033  1
  Rb  Rb3  1  0.73707840  0.51110842  0.88186090  1
  U  U4  1  0.03190987  0.99426008  0.24550808  1
  U  U5  1  0.96809013  0.00573992  0.75449192  1
  U  U6  1  0.50000000  0.00000000  0.00000000  1
  U  U7  1  0.50000000  0.00000000  0.50000000  1
  O  O8  1  0.06633796  0.25699632  0.31119363  1
  O  O9  1  0.18962603  0.01732471  0.55729818  1
  O  O10  1  0.00780454  0.26872821  0.82135741  1
  O  O11  1  0.18937330  0.01873081  0.95853554  1
  O  O12  1  0.55721945  0.26617698  0.07920898  1
  O  O13  1  0.44278055  0.73382302  0.92079102  1
  O  O14  1  0.36845240  0.98503630  0.24636474  1
  O  O15  1  0.55323717  0.26651885  0.55523091  1
  O  O16  1  0.44676283  0.73348115  0.44476909  1
  O  O17  1  0.81037397  0.98267529  0.44270182  1
  O  O18  1  0.63154760  0.01496370  0.75363526  1
  O  O19  1  0.93366204  0.74300368  0.68880637  1
  O  O20  1  0.81062670  0.98126919  0.04146446  1
  O  O21  1  0.99219546  0.73127179  0.17864259  1
