# generated using pymatgen
data_Cd2H2SO6
_symmetry_space_group_name_H-M   'P 1'
_cell_length_a   6.95548937
_cell_length_b   6.95548937
_cell_length_c   6.47107246
_cell_angle_alpha   67.91309926
_cell_angle_beta   112.08690074
_cell_angle_gamma   112.54688987
_symmetry_Int_Tables_number   1
_chemical_formula_structural   Cd2H2SO6
_chemical_formula_sum   'Cd4 H4 S2 O12'
_cell_volume   257.89792127
_cell_formula_units_Z   2
loop_
 _symmetry_equiv_pos_site_id
 _symmetry_equiv_pos_as_xyz
  1  'x, y, z'
loop_
 _atom_site_type_symbol
 _atom_site_label
 _atom_site_symmetry_multiplicity
 _atom_site_fract_x
 _atom_site_fract_y
 _atom_site_fract_z
 _atom_site_occupancy
  Cd  Cd0  1  0.84942634  0.34657766  0.81264316  1
  Cd  Cd1  1  0.34657766  0.84942634  0.68735684  1
  Cd  Cd2  1  0.15057366  0.65342234  0.18735684  1
  Cd  Cd3  1  0.65342234  0.15057366  0.31264316  1
  H  H4  1  0.77139925  0.94864343  0.81098556  1
  H  H5  1  0.94864343  0.77139925  0.68901444  1
  H  H6  1  0.22860075  0.05135657  0.18901444  1
  H  H7  1  0.05135657  0.22860075  0.31098556  1
  S  S8  1  0.31227307  0.31227307  0.75000000  1
  S  S9  1  0.68772693  0.68772693  0.25000000  1
  O  O10  1  0.31368335  0.53317943  0.59569424  1
  O  O11  1  0.53317943  0.31368335  0.90430576  1
  O  O12  1  0.68631665  0.46682057  0.40430576  1
  O  O13  1  0.46682057  0.68631665  0.09569424  1
  O  O14  1  0.16442643  0.24506262  0.89326768  1
  O  O15  1  0.24506262  0.16442643  0.60673232  1
  O  O16  1  0.83557357  0.75493738  0.10673232  1
  O  O17  1  0.75493738  0.83557357  0.39326768  1
  O  O18  1  0.68666035  0.04691452  0.70133605  1
  O  O19  1  0.04691452  0.68666035  0.79866395  1
  O  O20  1  0.31333965  0.95308548  0.29866395  1
  O  O21  1  0.95308548  0.31333965  0.20133605  1
