# generated using pymatgen
data_FeSCl7
_symmetry_space_group_name_H-M   'P 1'
_cell_length_a   12.15308339
_cell_length_b   6.46105003
_cell_length_c   13.89627934
_cell_angle_alpha   79.14969924
_cell_angle_beta   90.00000000
_cell_angle_gamma   90.00000000
_symmetry_Int_Tables_number   1
_chemical_formula_structural   FeSCl7
_chemical_formula_sum   'Fe4 S4 Cl28'
_cell_volume   1071.65185401
_cell_formula_units_Z   4
loop_
 _symmetry_equiv_pos_site_id
 _symmetry_equiv_pos_as_xyz
  1  'x, y, z'
loop_
 _atom_site_type_symbol
 _atom_site_label
 _atom_site_symmetry_multiplicity
 _atom_site_fract_x
 _atom_site_fract_y
 _atom_site_fract_z
 _atom_site_occupancy
  Fe  Fe0  1  0.51744493  0.60595760  0.75938600  1
  Fe  Fe1  1  0.01744493  0.39404240  0.74061400  1
  Fe  Fe2  1  0.48255507  0.39404240  0.24061400  1
  Fe  Fe3  1  0.98255507  0.60595760  0.25938600  1
  S  S4  1  0.25524263  0.96958760  0.08715708  1
  S  S5  1  0.75524263  0.03041240  0.41284292  1
  S  S6  1  0.74475737  0.03041240  0.91284292  1
  S  S7  1  0.24475737  0.96958760  0.58715708  1
  Cl  Cl8  1  0.35773021  0.14716256  0.99309960  1
  Cl  Cl9  1  0.86078318  0.82228232  0.89265119  1
  Cl  Cl10  1  0.93494291  0.38424819  0.39354622  1
  Cl  Cl11  1  0.56505709  0.38424819  0.89354622  1
  Cl  Cl12  1  0.13921682  0.17771768  0.10734881  1
  Cl  Cl13  1  0.94999660  0.47611847  0.12683224  1
  Cl  Cl14  1  0.05000340  0.52388153  0.87316776  1
  Cl  Cl15  1  0.44999660  0.52388153  0.37316776  1
  Cl  Cl16  1  0.39148472  0.09723514  0.25278046  1
  Cl  Cl17  1  0.06505709  0.61575181  0.60645378  1
  Cl  Cl18  1  0.17721077  0.80411091  0.00001349  1
  Cl  Cl19  1  0.16025725  0.66403237  0.26677269  1
  Cl  Cl20  1  0.63921682  0.82228232  0.39265119  1
  Cl  Cl21  1  0.33974275  0.66403237  0.76677269  1
  Cl  Cl22  1  0.43494291  0.61575181  0.10645378  1
  Cl  Cl23  1  0.89148472  0.90276486  0.24721954  1
  Cl  Cl24  1  0.14226979  0.14716256  0.49309960  1
  Cl  Cl25  1  0.10851528  0.09723514  0.75278046  1
  Cl  Cl26  1  0.55000340  0.47611847  0.62683224  1
  Cl  Cl27  1  0.82278923  0.19588909  0.99998651  1
  Cl  Cl28  1  0.83974275  0.33596763  0.73322731  1
  Cl  Cl29  1  0.32278923  0.80411091  0.50001349  1
  Cl  Cl30  1  0.36078318  0.17771768  0.60734881  1
  Cl  Cl31  1  0.67721077  0.19588909  0.49998651  1
  Cl  Cl32  1  0.66025725  0.33596763  0.23322731  1
  Cl  Cl33  1  0.64226979  0.85283744  0.00690040  1
  Cl  Cl34  1  0.85773021  0.85283744  0.50690040  1
  Cl  Cl35  1  0.60851528  0.90276486  0.74721954  1
