# generated using pymatgen
data_GdGaGe2O7
_symmetry_space_group_name_H-M   'P 1'
_cell_length_a   6.58000409
_cell_length_b   7.18252489
_cell_length_c   12.79837460
_cell_angle_alpha   62.30734341
_cell_angle_beta   90.00000000
_cell_angle_gamma   90.00000000
_symmetry_Int_Tables_number   1
_chemical_formula_structural   GdGaGe2O7
_chemical_formula_sum   'Gd4 Ga4 Ge8 O28'
_cell_volume   535.57923460
_cell_formula_units_Z   4
loop_
 _symmetry_equiv_pos_site_id
 _symmetry_equiv_pos_as_xyz
  1  'x, y, z'
loop_
 _atom_site_type_symbol
 _atom_site_label
 _atom_site_symmetry_multiplicity
 _atom_site_fract_x
 _atom_site_fract_y
 _atom_site_fract_z
 _atom_site_occupancy
  Gd  Gd0  1  0.64579549  0.76055854  0.47402487  1
  Gd  Gd1  1  0.14579549  0.23944146  0.02597513  1
  Gd  Gd2  1  0.35420451  0.23944146  0.52597513  1
  Gd  Gd3  1  0.85420451  0.76055854  0.97402487  1
  Ga  Ga4  1  0.59968412  0.78902072  0.73094983  1
  Ga  Ga5  1  0.90031588  0.78902072  0.23094983  1
  Ga  Ga6  1  0.40031588  0.21097928  0.26905017  1
  Ga  Ga7  1  0.09968412  0.21097928  0.76905017  1
  Ge  Ge8  1  0.84204713  0.21646123  0.54168253  1
  Ge  Ge9  1  0.15795287  0.78353877  0.45831747  1
  Ge  Ge10  1  0.08827011  0.70068783  0.72271225  1
  Ge  Ge11  1  0.41172989  0.70068783  0.22271225  1
  Ge  Ge12  1  0.34204713  0.78353877  0.95831747  1
  Ge  Ge13  1  0.58827011  0.29931217  0.77728775  1
  Ge  Ge14  1  0.91172989  0.29931217  0.27728775  1
  Ge  Ge15  1  0.65795287  0.21646123  0.04168253  1
  O  O16  1  0.82802658  0.41147999  0.02035819  1
  O  O17  1  0.11173881  0.21639934  0.21940538  1
  O  O18  1  0.31157272  0.84978620  0.68681505  1
  O  O19  1  0.32802658  0.58852001  0.47964181  1
  O  O20  1  0.00074920  0.74401452  0.57969277  1
  O  O21  1  0.83864073  0.01081714  0.07620947  1
  O  O22  1  0.81157272  0.15021380  0.81318495  1
  O  O23  1  0.38826119  0.21639934  0.71940538  1
  O  O24  1  0.49925080  0.74401452  0.07969277  1
  O  O25  1  0.16135927  0.98918286  0.92379053  1
  O  O26  1  -0.00074920  0.25598548  0.42030723  1
  O  O27  1  0.66135927  0.01081714  0.57620947  1
  O  O28  1  0.62191130  0.57150545  0.68984751  1
  O  O29  1  0.55242705  0.78930135  0.87411013  1
  O  O30  1  0.94757295  0.78930135  0.37411013  1
  O  O31  1  0.18842728  0.84978620  0.18681505  1
  O  O32  1  0.44757295  0.21069865  0.12588987  1
  O  O33  1  0.87808870  0.57150545  0.18984751  1
  O  O34  1  0.05242705  0.21069865  0.62588987  1
  O  O35  1  0.67197342  0.41147999  0.52035819  1
  O  O36  1  0.88826119  0.78360066  0.78059462  1
  O  O37  1  0.68842728  0.15021380  0.31318495  1
  O  O38  1  0.50074920  0.25598548  0.92030723  1
  O  O39  1  0.37808870  0.42849455  0.31015249  1
  O  O40  1  0.61173881  0.78360066  0.28059462  1
  O  O41  1  0.12191130  0.42849455  0.81015249  1
  O  O42  1  0.17197342  0.58852001  0.97964181  1
  O  O43  1  0.33864073  0.98918286  0.42379053  1
