# generated using pymatgen
data_K2Ni3S4
_symmetry_space_group_name_H-M   'P 1'
_cell_length_a   14.07305980
_cell_length_b   13.44704173
_cell_length_c   5.81409734
_cell_angle_alpha   83.91485647
_cell_angle_beta   71.82948752
_cell_angle_gamma   24.25565600
_symmetry_Int_Tables_number   1
_chemical_formula_structural   K2Ni3S4
_chemical_formula_sum   'K4 Ni6 S8'
_cell_volume   382.02735614
_cell_formula_units_Z   2
loop_
 _symmetry_equiv_pos_site_id
 _symmetry_equiv_pos_as_xyz
  1  'x, y, z'
loop_
 _atom_site_type_symbol
 _atom_site_label
 _atom_site_symmetry_multiplicity
 _atom_site_fract_x
 _atom_site_fract_y
 _atom_site_fract_z
 _atom_site_occupancy
  K  K0  1  0.91282300  0.93082700  0.07902600  1
  K  K1  1  0.06845500  0.08723500  0.92949700  1
  K  K2  1  0.33076300  0.32299900  0.16576400  1
  K  K3  1  0.17813800  0.16656600  0.31809500  1
  Ni  Ni4  1  0.49752000  0.50028500  0.00390400  1
  Ni  Ni5  1  0.00710500  0.99426200  0.49440100  1
  Ni  Ni6  1  0.75209500  0.74609000  0.25754000  1
  Ni  Ni7  1  0.24720000  0.25090400  0.75563500  1
  Ni  Ni8  1  0.49971800  0.50393100  0.49760400  1
  Ni  Ni9  1  0.74111200  0.76003700  0.75328200  1
  S  S10  1  0.60130100  0.28675400  0.72240900  1
  S  S11  1  0.37608700  0.73119600  0.28822100  1
  S  S12  1  0.71963300  0.39162500  0.60348700  1
  S  S13  1  0.27371500  0.61679500  0.39030600  1
  S  S14  1  0.65141200  0.96123700  0.52154300  1
  S  S15  1  0.87031100  0.52323900  0.96140000  1
  S  S16  1  0.95670200  0.65323500  0.87129000  1
  S  S17  1  0.52856800  0.86436400  0.64564100  1
