# generated using pymatgen
data_KGdCO3F2
_symmetry_space_group_name_H-M   'P 1'
_cell_length_a   12.40850418
_cell_length_b   11.59199053
_cell_length_c   6.67499573
_cell_angle_alpha   80.71869641
_cell_angle_beta   67.21537629
_cell_angle_gamma   32.06592730
_symmetry_Int_Tables_number   1
_chemical_formula_structural   KGdCO3F2
_chemical_formula_sum   'K4 Gd4 C4 O12 F8'
_cell_volume   441.78495047
_cell_formula_units_Z   4
loop_
 _symmetry_equiv_pos_site_id
 _symmetry_equiv_pos_as_xyz
  1  'x, y, z'
loop_
 _atom_site_type_symbol
 _atom_site_label
 _atom_site_symmetry_multiplicity
 _atom_site_fract_x
 _atom_site_fract_y
 _atom_site_fract_z
 _atom_site_occupancy
  K  K0  1  0.95009600  0.96330500  0.79215600  1
  K  K1  1  0.79515000  0.78748500  0.95202700  1
  K  K2  1  0.20003700  0.21150700  0.04516500  1
  K  K3  1  0.03530400  0.05098200  0.21228900  1
  Gd  Gd4  1  0.55293800  0.20009500  0.55936600  1
  Gd  Gd5  1  0.80270400  0.45023000  0.80921500  1
  Gd  Gd6  1  0.18655100  0.56002100  0.19912900  1
  Gd  Gd7  1  0.44102400  0.80521300  0.43994400  1
  C  C8  1  0.75433400  0.74086800  0.50365600  1
  C  C9  1  0.50283800  0.49865200  0.74581200  1
  C  C10  1  0.24900000  0.25427000  0.49355300  1
  C  C11  1  0.49759600  0.49514100  0.25997100  1
  O  O12  1  0.31173500  0.31378100  0.43037600  1
  O  O13  1  0.68678800  0.68873500  0.55523800  1
  O  O14  1  0.06593800  0.38007000  0.67914600  1
  O  O15  1  0.68027600  0.37429300  0.06386200  1
  O  O16  1  0.62945700  0.31644200  0.61169400  1
  O  O17  1  0.43045300  0.44339000  0.32000800  1
  O  O18  1  0.37999600  0.07059100  0.37208100  1
  O  O19  1  0.37355100  0.67630100  0.38340700  1
  O  O20  1  0.93063200  0.61702300  0.31719300  1
  O  O21  1  0.30722500  0.63876100  0.94239700  1
  O  O22  1  0.56502000  0.56285400  0.69086500  1
  O  O23  1  0.61064900  0.94379600  0.63204300  1
  F  F24  1  0.18492500  0.52917900  0.85714300  1
  F  F25  1  0.52313900  0.19295700  0.94052700  1
  F  F26  1  0.84821100  0.93108700  0.18709400  1
  F  F27  1  0.80691900  0.47839900  0.15431200  1
  F  F28  1  0.92790300  0.85758200  0.52557800  1
  F  F29  1  0.07432700  0.14713800  0.46879700  1
  F  F30  1  0.47320700  0.80544800  0.07284200  1
  F  F31  1  0.14357500  0.07452800  0.81678000  1
