# generated using pymatgen
data_KPbO2
_symmetry_space_group_name_H-M   'P 1'
_cell_length_a   7.12282700
_cell_length_b   7.62265652
_cell_length_c   13.08402248
_cell_angle_alpha   105.45226696
_cell_angle_beta   90.93764775
_cell_angle_gamma   117.53873223
_symmetry_Int_Tables_number   1
_chemical_formula_structural   KPbO2
_chemical_formula_sum   'K8 Pb8 O16'
_cell_volume   598.98865012
_cell_formula_units_Z   8
loop_
 _symmetry_equiv_pos_site_id
 _symmetry_equiv_pos_as_xyz
  1  'x, y, z'
loop_
 _atom_site_type_symbol
 _atom_site_label
 _atom_site_symmetry_multiplicity
 _atom_site_fract_x
 _atom_site_fract_y
 _atom_site_fract_z
 _atom_site_occupancy
  K  K0  1  0.74954000  0.00436400  0.73486600  1
  K  K1  1  0.25588000  0.25611900  0.00806400  1
  K  K2  1  0.24685700  0.99470200  0.76502900  1
  K  K3  1  0.75314300  0.00529800  0.23497100  1
  K  K4  1  0.74186600  0.74193600  0.49167600  1
  K  K5  1  0.25813400  0.25806400  0.50832400  1
  K  K6  1  0.25046000  0.99563600  0.26513400  1
  K  K7  1  0.74412000  0.74388100  0.99193600  1
  Pb  Pb8  1  0.77269800  0.26001000  0.46570500  1
  Pb  Pb9  1  0.22730200  0.73999000  0.53429500  1
  Pb  Pb10  1  0.76970200  0.25899200  0.96679300  1
  Pb  Pb11  1  0.23029800  0.74100800  0.03320700  1
  Pb  Pb12  1  0.26205500  0.49993800  0.25331900  1
  Pb  Pb13  1  0.73794500  0.50006200  0.74668100  1
  Pb  Pb14  1  0.25859600  0.49873700  0.75442500  1
  Pb  Pb15  1  0.74140400  0.50126300  0.24557500  1
  O  O16  1  0.51215500  0.59989200  0.34299100  1
  O  O17  1  0.48784500  0.40010800  0.65700900  1
  O  O18  1  0.97272800  0.80226000  0.13812100  1
  O  O19  1  0.02727200  0.19774000  0.86187900  1
  O  O20  1  0.02371200  0.43125000  0.14300700  1
  O  O21  1  0.97628800  0.56875000  0.85699300  1
  O  O22  1  0.03064600  0.19913100  0.36108100  1
  O  O23  1  0.96935400  0.80086900  0.63891900  1
  O  O24  1  0.56975000  0.20672800  0.35457300  1
  O  O25  1  0.43025000  0.79327200  0.64542700  1
  O  O26  1  0.43300100  0.79478800  0.14469900  1
  O  O27  1  0.49093300  0.40121600  0.15580900  1
  O  O28  1  0.97879000  0.56977300  0.35626600  1
  O  O29  1  0.02121000  0.43022700  0.64373400  1
  O  O30  1  0.50906700  0.59878400  0.84419100  1
  O  O31  1  0.56699900  0.20521200  0.85530100  1
