# generated using pymatgen
data_P(CN)3
_symmetry_space_group_name_H-M   'P 1'
_cell_length_a   11.22000736
_cell_length_b   11.22000736
_cell_length_c   11.22000736
_cell_angle_alpha   103.27123525
_cell_angle_beta   103.27123525
_cell_angle_gamma   122.74340989
_symmetry_Int_Tables_number   1
_chemical_formula_structural   P(CN)3
_chemical_formula_sum   'P8 C24 N24'
_cell_volume   1042.78982629
_cell_formula_units_Z   8
loop_
 _symmetry_equiv_pos_site_id
 _symmetry_equiv_pos_as_xyz
  1  'x, y, z'
loop_
 _atom_site_type_symbol
 _atom_site_label
 _atom_site_symmetry_multiplicity
 _atom_site_fract_x
 _atom_site_fract_y
 _atom_site_fract_z
 _atom_site_occupancy
  P  P0  1  0.84212873  0.09882129  0.73518614  1
  P  P1  1  0.89305741  0.15787127  0.25669156  1
  P  P2  1  0.36363415  0.10694259  0.26481386  1
  P  P3  1  0.88636585  0.65117871  0.24330844  1
  P  P4  1  0.35694259  0.11363415  0.76481386  1
  P  P5  1  0.40787127  0.64305741  0.75669156  1
  P  P6  1  0.90117871  0.63636585  0.74330844  1
  P  P7  1  0.34882129  0.59212873  0.23518614  1
  C  C8  1  0.42655352  0.29850695  0.76259935  1
  C  C9  1  0.35765713  0.74977622  0.21473861  1
  C  C10  1  0.25212226  0.01150552  0.08494496  1
  C  C11  1  -0.00022378  0.10765713  0.71473861  1
  C  C12  1  0.33604483  0.57344648  0.87195344  1
  C  C13  1  0.92656056  0.16717729  0.91505504  1
  C  C14  1  0.25022378  0.46496139  0.60787991  1
  C  C15  1  0.89234287  0.60708148  0.89212009  1
  C  C16  1  0.91395517  0.28590860  0.73740065  1
  C  C17  1  0.71496139  0.00022378  0.10787991  1
  C  C18  1  0.53503861  0.14291852  0.78526139  1
  C  C19  1  0.82344648  0.08604483  0.37195344  1
  C  C20  1  0.54850695  0.17655352  0.26259935  1
  C  C21  1  0.39291852  0.28503861  0.28526139  1
  C  C22  1  0.41717729  0.67656056  0.41505504  1
  C  C23  1  0.71409140  0.45149305  0.62804656  1
  C  C24  1  0.26150552  0.00212226  0.58494496  1
  C  C25  1  0.85708148  0.64234287  0.39212009  1
  C  C26  1  0.70149305  0.46409140  0.12804656  1
  C  C27  1  0.83282271  0.74787774  0.75938327  1
  C  C28  1  0.53590860  0.66395517  0.23740065  1
  C  C29  1  0.98849448  0.07343944  0.24061673  1
  C  C30  1  0.32343944  0.73849448  0.74061673  1
  C  C31  1  -0.00212226  0.58282271  0.25938327  1
  N  N32  1  0.08326110  0.55375356  0.26989412  1
  N  N33  1  0.60111012  0.90838141  0.00773766  1
  N  N34  1  0.46567592  0.41999572  0.76991198  1
  N  N35  1  0.59991526  0.33000428  0.54568020  1
  N  N36  1  0.18663302  0.91673890  0.47049146  1
  N  N37  1  0.65008474  0.69576394  0.23008802  1
  N  N38  1  0.66999572  0.21567592  0.26991198  1
  N  N39  1  0.06336698  0.03385844  0.23010588  1
  N  N40  1  0.90064275  0.59337146  0.99226234  1
  N  N41  1  0.58000428  0.34991526  0.04568020  1
  N  N42  1  0.28385844  0.81336698  0.73010588  1
  N  N43  1  0.94576394  0.40008474  0.73008802  1
  N  N44  1  0.15838141  0.35111012  0.50773766  1
  N  N45  1  0.16673890  0.93663302  0.97049146  1
  N  N46  1  0.34935725  0.84161859  0.19272871  1
  N  N47  1  0.09161859  0.09935725  0.69272871  1
  N  N48  1  0.78432408  0.05423606  0.45431980  1
  N  N49  1  0.84337146  0.65064275  0.49226234  1
  N  N50  1  0.30423606  0.53432408  0.95431980  1
  N  N51  1  0.40662854  0.39888988  0.30727129  1
  N  N52  1  0.64888988  0.15662854  0.80727129  1
  N  N53  1  0.96614156  0.19624644  0.02950854  1
  N  N54  1  0.44624644  0.71614156  0.52950854  1
  N  N55  1  0.80375356  0.83326110  0.76989412  1
