# generated using pymatgen
data_In3Te3I
_symmetry_space_group_name_H-M   'P 1'
_cell_length_a   4.37290710
_cell_length_b   11.87943375
_cell_length_c   20.69909451
_cell_angle_alpha   90.00000000
_cell_angle_beta   90.00000000
_cell_angle_gamma   90.00000000
_symmetry_Int_Tables_number   1
_chemical_formula_structural   In3Te3I
_chemical_formula_sum   'In12 Te12 I4'
_cell_volume   1075.26952783
_cell_formula_units_Z   4
loop_
 _symmetry_equiv_pos_site_id
 _symmetry_equiv_pos_as_xyz
  1  'x, y, z'
loop_
 _atom_site_type_symbol
 _atom_site_label
 _atom_site_symmetry_multiplicity
 _atom_site_fract_x
 _atom_site_fract_y
 _atom_site_fract_z
 _atom_site_occupancy
  In  In0  1  0.25000000  0.32254317  0.01154834  1
  In  In1  1  0.25000000  0.84351910  0.13187736  1
  In  In2  1  0.25000000  0.44630381  0.89660445  1
  In  In3  1  0.75000000  0.55369619  0.10339555  1
  In  In4  1  0.75000000  0.67745683  0.98845166  1
  In  In5  1  0.75000000  0.05369619  0.39660445  1
  In  In6  1  0.75000000  0.15648090  0.86812264  1
  In  In7  1  0.25000000  0.94630381  0.60339555  1
  In  In8  1  0.75000000  0.17745683  0.51154834  1
  In  In9  1  0.25000000  0.82254317  0.48845166  1
  In  In10  1  0.25000000  0.34351910  0.36812264  1
  In  In11  1  0.75000000  0.65648090  0.63187736  1
  Te  Te12  1  0.75000000  0.73630447  0.19448591  1
  Te  Te13  1  0.75000000  0.66519365  0.49546496  1
  Te  Te14  1  0.25000000  0.33480635  0.50453504  1
  Te  Te15  1  0.25000000  0.83480635  0.99546496  1
  Te  Te16  1  0.75000000  0.16519365  0.00453504  1
  Te  Te17  1  0.25000000  0.41101079  0.13925188  1
  Te  Te18  1  0.25000000  0.91101079  0.36074812  1
  Te  Te19  1  0.25000000  0.76369553  0.69448591  1
  Te  Te20  1  0.75000000  0.08898921  0.63925188  1
  Te  Te21  1  0.75000000  0.58898921  0.86074812  1
  Te  Te22  1  0.75000000  0.23630447  0.30551409  1
  Te  Te23  1  0.25000000  0.26369553  0.80551409  1
  I  I24  1  0.25000000  0.56400907  0.33044367  1
  I  I25  1  0.75000000  0.43599093  0.66955633  1
  I  I26  1  0.25000000  0.06400907  0.16955633  1
  I  I27  1  0.75000000  0.93599093  0.83044367  1
