# generated using pymatgen
data_Ca(HO)2
_symmetry_space_group_name_H-M   'P 1'
_cell_length_a   5.39531606
_cell_length_b   6.03902177
_cell_length_c   5.95243371
_cell_angle_alpha   90.00000000
_cell_angle_beta   104.63908597
_cell_angle_gamma   90.00000000
_symmetry_Int_Tables_number   1
_chemical_formula_structural   Ca(HO)2
_chemical_formula_sum   'Ca4 H8 O8'
_cell_volume   187.64873060
_cell_formula_units_Z   4
loop_
 _symmetry_equiv_pos_site_id
 _symmetry_equiv_pos_as_xyz
  1  'x, y, z'
loop_
 _atom_site_type_symbol
 _atom_site_label
 _atom_site_symmetry_multiplicity
 _atom_site_fract_x
 _atom_site_fract_y
 _atom_site_fract_z
 _atom_site_occupancy
  Ca  Ca0  1  0.31426572  0.42983987  0.68758365  1
  Ca  Ca1  1  0.68573428  0.92983987  0.81241635  1
  Ca  Ca2  1  0.68573428  0.57016013  0.31241635  1
  Ca  Ca3  1  0.31426572  0.07016013  0.18758365  1
  H  H4  1  0.13152397  -0.00259234  0.70008097  1
  H  H5  1  0.86847603  0.49740766  0.79991903  1
  H  H6  1  0.86847603  0.00259234  0.29991903  1
  H  H7  1  0.13152397  0.50259234  0.20008097  1
  H  H8  1  0.22139012  0.72159388  0.92009992  1
  H  H9  1  0.77860988  0.22159388  0.57990008  1
  H  H10  1  0.77860988  0.27840612  0.07990008  1
  H  H11  1  0.22139012  0.77840612  0.42009992  1
  O  O12  1  0.07367290  0.12166660  0.77676283  1
  O  O13  1  0.92632710  0.62166660  0.72323717  1
  O  O14  1  0.92632710  0.87833340  0.22323717  1
  O  O15  1  0.07367290  0.37833340  0.27676283  1
  O  O16  1  0.40473330  0.73854972  0.99394968  1
  O  O17  1  0.59526670  0.23854972  0.50605032  1
  O  O18  1  0.59526670  0.26145028  0.00605032  1
  O  O19  1  0.40473330  0.76145028  0.49394968  1
