# generated using pymatgen
data_Al5HO8
_symmetry_space_group_name_H-M   'P 1'
_cell_length_a   5.57080916
_cell_length_b   5.57080931
_cell_length_c   8.75030671
_cell_angle_alpha   89.99999631
_cell_angle_beta   90.00000225
_cell_angle_gamma   120.00003072
_symmetry_Int_Tables_number   1
_chemical_formula_structural   Al5HO8
_chemical_formula_sum   'Al10 H2 O16'
_cell_volume   235.17456378
_cell_formula_units_Z   2
loop_
 _symmetry_equiv_pos_site_id
 _symmetry_equiv_pos_as_xyz
  1  'x, y, z'
loop_
 _atom_site_type_symbol
 _atom_site_label
 _atom_site_symmetry_multiplicity
 _atom_site_fract_x
 _atom_site_fract_y
 _atom_site_fract_z
 _atom_site_occupancy
  Al  Al0  1  0.83429559  0.16570439  0.86578083  1
  Al  Al1  1  0.83429554  0.66859202  0.86578079  1
  Al  Al2  1  0.33140794  0.16570443  0.86578083  1
  Al  Al3  1  0.16570453  0.83429541  0.36578561  1
  Al  Al4  1  0.16570479  0.33140890  0.36578562  1
  Al  Al5  1  0.66859106  0.83429519  0.36578564  1
  Al  Al6  1  0.33333313  0.66666682  0.65836617  1
  Al  Al7  1  0.66666684  0.33333315  0.15836776  1
  Al  Al8  1  0.66666667  0.33333328  0.54811315  1
  Al  Al9  1  0.33333311  0.66666682  0.04811356  1
  H  H10  1  0.00000002  -0.00000002  0.59710550  1
  H  H11  1  -0.00000008  -0.00000001  0.09710551  1
  O  O12  1  0.00000006  -0.00000007  0.48505469  1
  O  O13  1  -0.00000018  0.00000009  0.98505329  1
  O  O14  1  0.48555692  0.51444303  0.50108425  1
  O  O15  1  0.48555656  0.97111323  0.50108428  1
  O  O16  1  0.02888677  0.51444342  0.50108427  1
  O  O17  1  0.51444248  0.48555748  0.00108411  1
  O  O18  1  0.51444296  0.02888598  0.00108426  1
  O  O19  1  0.97111396  0.48555694  0.00108424  1
  O  O20  1  0.66809591  0.83404821  0.76265279  1
  O  O21  1  0.16595161  0.83404825  0.76265287  1
  O  O22  1  0.16595173  0.33190408  0.76265277  1
  O  O23  1  0.33190885  0.16595434  0.26265115  1
  O  O24  1  0.83404576  0.16595435  0.26265108  1
  O  O25  1  0.83404565  0.66809106  0.26265109  1
  O  O26  1  0.66666642  0.33333364  0.75487111  1
  O  O27  1  0.33333338  0.66666656  0.25486878  1
