# generated using pymatgen
data_Cs3Tb2Br9
_symmetry_space_group_name_H-M   'P 1'
_cell_length_a   10.27539361
_cell_length_b   10.27539361
_cell_length_c   10.27539387
_cell_angle_alpha   83.88858451
_cell_angle_beta   83.88858451
_cell_angle_gamma   83.88857842
_symmetry_Int_Tables_number   1
_chemical_formula_structural   Cs3Tb2Br9
_chemical_formula_sum   'Cs6 Tb4 Br18'
_cell_volume   1067.64090792
_cell_formula_units_Z   2
loop_
 _symmetry_equiv_pos_site_id
 _symmetry_equiv_pos_as_xyz
  1  'x, y, z'
loop_
 _atom_site_type_symbol
 _atom_site_label
 _atom_site_symmetry_multiplicity
 _atom_site_fract_x
 _atom_site_fract_y
 _atom_site_fract_z
 _atom_site_occupancy
  Cs  Cs0  1  0.75000000  0.41185715  0.08814285  1
  Cs  Cs1  1  0.08814285  0.75000000  0.41185715  1
  Cs  Cs2  1  0.25000000  0.58814285  0.91185715  1
  Cs  Cs3  1  0.41185715  0.08814285  0.75000000  1
  Cs  Cs4  1  0.91185715  0.25000000  0.58814285  1
  Cs  Cs5  1  0.58814285  0.91185715  0.25000000  1
  Tb  Tb6  1  0.34978715  0.34978715  0.34978715  1
  Tb  Tb7  1  0.65021285  0.65021285  0.65021285  1
  Tb  Tb8  1  0.84978715  0.84978715  0.84978715  1
  Tb  Tb9  1  0.15021285  0.15021285  0.15021285  1
  Br  Br10  1  0.41461209  0.76602278  0.58004598  1
  Br  Br11  1  0.23397722  0.41995402  0.58538791  1
  Br  Br12  1  0.40712177  0.25000000  0.09287823  1
  Br  Br13  1  0.09287823  0.40712177  0.25000000  1
  Br  Br14  1  0.91995402  0.73397722  0.08538791  1
  Br  Br15  1  0.91461209  0.08004598  0.26602278  1
  Br  Br16  1  0.59287823  0.75000000  0.90712177  1
  Br  Br17  1  0.75000000  0.90712177  0.59287823  1
  Br  Br18  1  0.58004598  0.41461209  0.76602278  1
  Br  Br19  1  0.25000000  0.09287823  0.40712177  1
  Br  Br20  1  0.76602278  0.58004598  0.41461209  1
  Br  Br21  1  0.73397722  0.08538791  0.91995402  1
  Br  Br22  1  0.08004598  0.26602278  0.91461209  1
  Br  Br23  1  0.41995402  0.58538791  0.23397722  1
  Br  Br24  1  0.58538791  0.23397722  0.41995402  1
  Br  Br25  1  0.90712177  0.59287823  0.75000000  1
  Br  Br26  1  0.26602278  0.91461209  0.08004598  1
  Br  Br27  1  0.08538791  0.91995402  0.73397722  1
