# generated using pymatgen
data_In4Br7
_symmetry_space_group_name_H-M   'P 1'
_cell_length_a   7.68606365
_cell_length_b   7.68606365
_cell_length_c   31.68531365
_cell_angle_alpha   82.86851527
_cell_angle_beta   82.86851527
_cell_angle_gamma   59.09352354
_symmetry_Int_Tables_number   1
_chemical_formula_structural   In4Br7
_chemical_formula_sum   'In16 Br28'
_cell_volume   1589.60392550
_cell_formula_units_Z   4
loop_
 _symmetry_equiv_pos_site_id
 _symmetry_equiv_pos_as_xyz
  1  'x, y, z'
loop_
 _atom_site_type_symbol
 _atom_site_label
 _atom_site_symmetry_multiplicity
 _atom_site_fract_x
 _atom_site_fract_y
 _atom_site_fract_z
 _atom_site_occupancy
  In  In0  1  0.17408424  0.67586268  0.97566714  1
  In  In1  1  0.45481585  0.96273446  0.12573753  1
  In  In2  1  0.03726554  0.54518415  0.37426247  1
  In  In3  1  0.67586268  0.17408424  0.47566714  1
  In  In4  1  0.36703938  0.91501251  0.31527749  1
  In  In5  1  0.18354136  0.81645864  0.75000000  1
  In  In6  1  0.54518415  0.03726554  0.87426247  1
  In  In7  1  0.82591576  0.32413732  0.02433286  1
  In  In8  1  0.63296062  0.08498749  0.68472251  1
  In  In9  1  0.50000000  -0.00000000  0.00000000  1
  In  In10  1  0.91501251  0.36703938  0.81527749  1
  In  In11  1  0.96273446  0.45481585  0.62573753  1
  In  In12  1  0.32413732  0.82591576  0.52433286  1
  In  In13  1  0.00000000  0.50000000  0.50000000  1
  In  In14  1  0.81645864  0.18354136  0.25000000  1
  In  In15  1  0.08498749  0.63296062  0.18472251  1
  Br  Br16  1  0.31377505  0.99669644  0.23604744  1
  Br  Br17  1  0.51045224  0.86374940  0.66296860  1
  Br  Br18  1  0.99669644  0.31377505  0.73604744  1
  Br  Br19  1  0.74077535  0.68784358  0.95041288  1
  Br  Br20  1  0.01963442  0.01382873  0.84921084  1
  Br  Br21  1  0.13625060  0.48954776  0.83703140  1
  Br  Br22  1  0.54739664  0.60779866  0.83477036  1
  Br  Br23  1  0.00330356  0.68622495  0.26395256  1
  Br  Br24  1  0.12387929  0.19242313  0.45025726  1
  Br  Br25  1  0.62042761  0.23613324  0.95011820  1
  Br  Br26  1  0.23613324  0.62042761  0.45011820  1
  Br  Br27  1  0.60779866  0.54739664  0.33477036  1
  Br  Br28  1  0.48954776  0.13625060  0.33703140  1
  Br  Br29  1  0.98617127  0.98036558  0.65078916  1
  Br  Br30  1  0.01382873  0.01963442  0.34921084  1
  Br  Br31  1  0.80757687  0.87612071  0.04974274  1
  Br  Br32  1  0.86374940  0.51045224  0.16296860  1
  Br  Br33  1  0.76386676  0.37957239  0.54988180  1
  Br  Br34  1  0.87612071  0.80757687  0.54974274  1
  Br  Br35  1  0.45260336  0.39220134  0.16522964  1
  Br  Br36  1  0.68784358  0.74077535  0.45041288  1
  Br  Br37  1  0.98036558  0.98617127  0.15078916  1
  Br  Br38  1  0.37957239  0.76386676  0.04988180  1
  Br  Br39  1  0.31215642  0.25922465  0.54958712  1
  Br  Br40  1  0.39220134  0.45260336  0.66522964  1
  Br  Br41  1  0.25922465  0.31215642  0.04958712  1
  Br  Br42  1  0.68622495  0.00330356  0.76395256  1
  Br  Br43  1  0.19242313  0.12387929  0.95025726  1
