# generated using pymatgen
data_Mg2H4Ru
_symmetry_space_group_name_H-M   'P 1'
_cell_length_a   5.44290458
_cell_length_b   5.44290458
_cell_length_c   4.79254804
_cell_angle_alpha   90.00000000
_cell_angle_beta   90.00000000
_cell_angle_gamma   79.47987225
_symmetry_Int_Tables_number   1
_chemical_formula_structural   Mg2H4Ru
_chemical_formula_sum   'Mg4 H8 Ru2'
_cell_volume   139.59367313
_cell_formula_units_Z   2
loop_
 _symmetry_equiv_pos_site_id
 _symmetry_equiv_pos_as_xyz
  1  'x, y, z'
loop_
 _atom_site_type_symbol
 _atom_site_label
 _atom_site_symmetry_multiplicity
 _atom_site_fract_x
 _atom_site_fract_y
 _atom_site_fract_z
 _atom_site_occupancy
  Mg  Mg0  1  0.06823650  0.64929929  0.25000000  1
  Mg  Mg1  1  0.35070071  0.93176350  0.75000000  1
  Mg  Mg2  1  0.93176350  0.35070071  0.75000000  1
  Mg  Mg3  1  0.64929929  0.06823650  0.25000000  1
  H  H4  1  0.35331441  0.87099840  0.25000000  1
  H  H5  1  0.12900160  0.64668559  0.75000000  1
  H  H6  1  0.64668559  0.12900160  0.75000000  1
  H  H7  1  0.87099840  0.35331441  0.25000000  1
  H  H8  1  0.27802225  0.27802225  0.01533516  1
  H  H9  1  0.72197775  0.72197775  0.98466484  1
  H  H10  1  0.27802225  0.27802225  0.48466484  1
  H  H11  1  0.72197775  0.72197775  0.51533516  1
  Ru  Ru12  1  0.13196143  0.13196143  0.25000000  1
  Ru  Ru13  1  0.86803857  0.86803857  0.75000000  1
