# generated using pymatgen
data_KPb2Cl5
_symmetry_space_group_name_H-M   'P 1'
_cell_length_a   7.98938157
_cell_length_b   8.87203494
_cell_length_c   12.56416424
_cell_angle_alpha   89.85923549
_cell_angle_beta   90.00000000
_cell_angle_gamma   90.00000000
_symmetry_Int_Tables_number   1
_chemical_formula_structural   KPb2Cl5
_chemical_formula_sum   'K4 Pb8 Cl20'
_cell_volume   890.57131255
_cell_formula_units_Z   4
loop_
 _symmetry_equiv_pos_site_id
 _symmetry_equiv_pos_as_xyz
  1  'x, y, z'
loop_
 _atom_site_type_symbol
 _atom_site_label
 _atom_site_symmetry_multiplicity
 _atom_site_fract_x
 _atom_site_fract_y
 _atom_site_fract_z
 _atom_site_occupancy
  K  K0  1  0.45124191  0.50953218  0.67102781  1
  K  K1  1  0.95124191  0.49046782  0.82897219  1
  K  K2  1  0.54875809  0.49046782  0.32897219  1
  K  K3  1  0.04875809  0.50953218  0.17102781  1
  Pb  Pb4  1  0.49842060  0.00953745  0.67472907  1
  Pb  Pb5  1  0.99842060  0.99046255  0.82527093  1
  Pb  Pb6  1  0.50157940  0.99046255  0.32527093  1
  Pb  Pb7  1  0.00157940  0.00953745  0.17472907  1
  Pb  Pb8  1  0.06659527  0.25541526  0.49415446  1
  Pb  Pb9  1  0.56659527  0.74458474  0.00584554  1
  Pb  Pb10  1  0.93340473  0.74458474  0.50584554  1
  Pb  Pb11  1  0.43340473  0.25541526  0.99415446  1
  Cl  Cl12  1  0.33547926  0.95767107  0.89992431  1
  Cl  Cl13  1  0.83547926  0.04232893  0.60007569  1
  Cl  Cl14  1  0.66452074  0.04232893  0.10007569  1
  Cl  Cl15  1  0.16452074  0.95767107  0.39992431  1
  Cl  Cl16  1  0.45963998  0.22137716  0.49786186  1
  Cl  Cl17  1  0.95963998  0.77862284  0.00213814  1
  Cl  Cl18  1  0.54036002  0.77862284  0.50213814  1
  Cl  Cl19  1  0.04036002  0.22137716  0.99786186  1
  Cl  Cl20  1  0.32134247  0.54121108  0.91877183  1
  Cl  Cl21  1  0.82134247  0.45878892  0.58122817  1
  Cl  Cl22  1  0.67865753  0.45878892  0.08122817  1
  Cl  Cl23  1  0.17865753  0.54121108  0.41877183  1
  Cl  Cl24  1  0.18890776  0.23600749  0.71962677  1
  Cl  Cl25  1  0.68890776  0.76399251  0.78037323  1
  Cl  Cl26  1  0.81109224  0.76399251  0.28037323  1
  Cl  Cl27  1  0.31109224  0.23600749  0.21962677  1
  Cl  Cl28  1  0.15323837  0.76743551  0.68876676  1
  Cl  Cl29  1  0.65323837  0.23256449  0.81123324  1
  Cl  Cl30  1  0.84676163  0.23256449  0.31123324  1
  Cl  Cl31  1  0.34676163  0.76743551  0.18876676  1
