# generated using pymatgen
data_LiCa9Co(PO4)7
_symmetry_space_group_name_H-M   'P 1'
_cell_length_a   13.80516463
_cell_length_b   13.80516463
_cell_length_c   13.80516453
_cell_angle_alpha   44.46673361
_cell_angle_beta   44.46673361
_cell_angle_gamma   44.46673364
_symmetry_Int_Tables_number   1
_chemical_formula_structural   LiCa9Co(PO4)7
_chemical_formula_sum   'Li2 Ca18 Co2 P14 O56'
_cell_volume   1173.74550126
_cell_formula_units_Z   2
loop_
 _symmetry_equiv_pos_site_id
 _symmetry_equiv_pos_as_xyz
  1  'x, y, z'
loop_
 _atom_site_type_symbol
 _atom_site_label
 _atom_site_symmetry_multiplicity
 _atom_site_fract_x
 _atom_site_fract_y
 _atom_site_fract_z
 _atom_site_occupancy
  Li  Li0  1  0.82958700  0.82958700  0.82958700  1
  Li  Li1  1  0.32958700  0.32958700  0.32958700  1
  Ca  Ca2  1  0.34036900  0.93451800  0.92536800  1
  Ca  Ca3  1  0.03251600  0.44287100  0.05136400  1
  Ca  Ca4  1  0.44287100  0.05136400  0.03251600  1
  Ca  Ca5  1  0.84036900  0.42536800  0.43451800  1
  Ca  Ca6  1  0.65076700  0.06483200  0.09156200  1
  Ca  Ca7  1  0.43451800  0.84036900  0.42536800  1
  Ca  Ca8  1  0.59156200  0.56483200  0.15076700  1
  Ca  Ca9  1  0.94287100  0.53251600  0.55136400  1
  Ca  Ca10  1  0.55136400  0.94287100  0.53251600  1
  Ca  Ca11  1  0.42536800  0.43451800  0.84036900  1
  Ca  Ca12  1  0.06483200  0.09156200  0.65076700  1
  Ca  Ca13  1  0.53251600  0.55136400  0.94287100  1
  Ca  Ca14  1  0.15076700  0.59156200  0.56483200  1
  Ca  Ca15  1  0.56483200  0.15076700  0.59156200  1
  Ca  Ca16  1  0.09156200  0.65076700  0.06483200  1
  Ca  Ca17  1  0.93451800  0.92536800  0.34036900  1
  Ca  Ca18  1  0.92536800  0.34036900  0.93451800  1
  Ca  Ca19  1  0.05136400  0.03251600  0.44287100  1
  Co  Co20  1  0.49812800  0.49812800  0.49812800  1
  Co  Co21  1  0.99812800  0.99812800  0.99812800  1
  P  P22  1  0.27743800  0.31522300  0.81267700  1
  P  P23  1  0.17245800  0.72736800  0.69399300  1
  P  P24  1  0.81267700  0.27743800  0.31522300  1
  P  P25  1  0.31522300  0.81267700  0.27743800  1
  P  P26  1  0.77743800  0.31267700  0.81522300  1
  P  P27  1  0.67245800  0.19399300  0.22736800  1
  P  P28  1  0.22736800  0.67245800  0.19399300  1
  P  P29  1  0.72940700  0.72940700  0.72940700  1
  P  P30  1  0.72736800  0.69399300  0.17245800  1
  P  P31  1  0.19399300  0.22736800  0.67245800  1
  P  P32  1  0.69399300  0.17245800  0.72736800  1
  P  P33  1  0.81522300  0.77743800  0.31267700  1
  P  P34  1  0.22940700  0.22940700  0.22940700  1
  P  P35  1  0.31267700  0.81522300  0.77743800  1
  O  O36  1  0.62492000  0.34773700  0.62590100  1
  O  O37  1  0.86918000  0.33100500  0.14542100  1
  O  O38  1  0.85508500  0.10394000  0.41047100  1
  O  O39  1  0.38448600  0.82630500  0.81634200  1
  O  O40  1  0.66520900  0.11184400  0.38679700  1
  O  O41  1  0.07049000  0.75037900  0.65896100  1
  O  O42  1  0.36791700  0.15290500  0.61669200  1
  O  O43  1  0.36399300  0.38294900  0.63535100  1
  O  O44  1  0.12492000  0.12590100  0.84773700  1
  O  O45  1  0.16520900  0.88679700  0.61184400  1
  O  O46  1  0.21731700  0.39459800  0.11432200  1
  O  O47  1  0.13535100  0.88294900  0.86399300  1
  O  O48  1  0.84773700  0.12492000  0.12590100  1
  O  O49  1  0.81634200  0.38448600  0.82630500  1
  O  O50  1  0.35508500  0.91047100  0.60394000  1
  O  O51  1  0.75037900  0.65896100  0.07049000  1
  O  O52  1  0.88679700  0.61184400  0.16520900  1
  O  O53  1  0.39459800  0.11432200  0.21731700  1
  O  O54  1  0.82630500  0.81634200  0.38448600  1
  O  O55  1  0.57049000  0.15896100  0.25037900  1
  O  O56  1  0.41047100  0.85508500  0.10394000  1
  O  O57  1  0.14542100  0.86918000  0.33100500  1
  O  O58  1  0.11432200  0.21731700  0.39459800  1
  O  O59  1  0.91047100  0.60394000  0.35508500  1
  O  O60  1  0.25037900  0.57049000  0.15896100  1
  O  O61  1  0.89459800  0.71731700  0.61432200  1
  O  O62  1  0.65290500  0.86791700  0.11669200  1
  O  O63  1  0.36918000  0.64542100  0.83100500  1
  O  O64  1  0.11184400  0.38679700  0.66520900  1
  O  O65  1  0.65896100  0.07049000  0.75037900  1
  O  O66  1  0.12590100  0.84773700  0.12492000  1
  O  O67  1  0.62590100  0.62492000  0.34773700  1
  O  O68  1  0.15290500  0.61669200  0.36791700  1
  O  O69  1  0.38294900  0.63535100  0.36399300  1
  O  O70  1  0.63535100  0.36399300  0.38294900  1
  O  O71  1  0.83100500  0.36918000  0.64542100  1
  O  O72  1  0.60394000  0.35508500  0.91047100  1
  O  O73  1  0.15896100  0.25037900  0.57049000  1
  O  O74  1  0.61432200  0.89459800  0.71731700  1
  O  O75  1  0.18763600  0.18763600  0.18763600  1
  O  O76  1  0.86791700  0.11669200  0.65290500  1
  O  O77  1  0.68763600  0.68763600  0.68763600  1
  O  O78  1  0.71731700  0.61432200  0.89459800  1
  O  O79  1  0.10394000  0.41047100  0.85508500  1
  O  O80  1  0.88448600  0.31634200  0.32630500  1
  O  O81  1  0.61669200  0.36791700  0.15290500  1
  O  O82  1  0.64542100  0.83100500  0.36918000  1
  O  O83  1  0.33100500  0.14542100  0.86918000  1
  O  O84  1  0.86399300  0.13535100  0.88294900  1
  O  O85  1  0.11669200  0.65290500  0.86791700  1
  O  O86  1  0.32630500  0.88448600  0.31634200  1
  O  O87  1  0.34773700  0.62590100  0.62492000  1
  O  O88  1  0.88294900  0.86399300  0.13535100  1
  O  O89  1  0.38679700  0.66520900  0.11184400  1
  O  O90  1  0.31634200  0.32630500  0.88448600  1
  O  O91  1  0.61184400  0.16520900  0.88679700  1
