# generated using pymatgen
data_Al(ICl2)3
_symmetry_space_group_name_H-M   'P 1'
_cell_length_a   14.32231999
_cell_length_b   14.32231999
_cell_length_c   14.40905735
_cell_angle_alpha   72.07749553
_cell_angle_beta   72.07749553
_cell_angle_gamma   29.93865390
_symmetry_Int_Tables_number   1
_chemical_formula_structural   Al(ICl2)3
_chemical_formula_sum   'Al4 I12 Cl24'
_cell_volume   1398.27542667
_cell_formula_units_Z   4
loop_
 _symmetry_equiv_pos_site_id
 _symmetry_equiv_pos_as_xyz
  1  'x, y, z'
loop_
 _atom_site_type_symbol
 _atom_site_label
 _atom_site_symmetry_multiplicity
 _atom_site_fract_x
 _atom_site_fract_y
 _atom_site_fract_z
 _atom_site_occupancy
  Al  Al0  1  0.42253449  0.31523797  0.46181339  1
  Al  Al1  1  0.68476203  0.57746551  0.03818661  1
  Al  Al2  1  0.31523797  0.42253449  0.96181339  1
  Al  Al3  1  0.57746551  0.68476203  0.53818661  1
  I  I4  1  0.23811987  0.69828929  0.10081034  1
  I  I5  1  0.06920681  0.16505893  0.78201440  1
  I  I6  1  0.16505893  0.06920681  0.28201440  1
  I  I7  1  0.83494107  0.93079319  0.71798560  1
  I  I8  1  0.76188013  0.30171071  0.89918966  1
  I  I9  1  0.30171071  0.76188013  0.39918966  1
  I  I10  1  0.93079319  0.83494107  0.21798560  1
  I  I11  1  0.95115815  0.63721671  0.83003980  1
  I  I12  1  0.36278329  0.04884185  0.66996020  1
  I  I13  1  0.69828929  0.23811987  0.60081034  1
  I  I14  1  0.63721671  0.95115815  0.33003980  1
  I  I15  1  0.04884185  0.36278329  0.16996020  1
  Cl  Cl16  1  0.01084319  0.65798026  0.99129435  1
  Cl  Cl17  1  0.59107269  0.62759516  0.90969255  1
  Cl  Cl18  1  0.40892731  0.37240484  0.09030745  1
  Cl  Cl19  1  0.60534311  0.90335408  0.20779744  1
  Cl  Cl20  1  0.34201974  0.98915681  0.50870565  1
  Cl  Cl21  1  0.88935242  0.04143471  0.89212428  1
  Cl  Cl22  1  0.90335408  0.60534311  0.70779744  1
  Cl  Cl23  1  0.62759516  0.59107269  0.40969255  1
  Cl  Cl24  1  0.55510293  0.81934998  0.04740263  1
  Cl  Cl25  1  0.18065002  0.44489707  0.45259737  1
  Cl  Cl26  1  0.11064758  0.95856529  0.10787572  1
  Cl  Cl27  1  0.98915681  0.34201974  0.00870565  1
  Cl  Cl28  1  0.44489707  0.18065002  0.95259737  1
  Cl  Cl29  1  0.04143471  0.88935242  0.39212428  1
  Cl  Cl30  1  0.49067289  0.64126571  0.66297112  1
  Cl  Cl31  1  0.39465689  0.09664592  0.79220256  1
  Cl  Cl32  1  0.65798026  0.01084319  0.49129435  1
  Cl  Cl33  1  0.64126571  0.49067289  0.16297112  1
  Cl  Cl34  1  0.81934998  0.55510293  0.54740263  1
  Cl  Cl35  1  0.09664592  0.39465689  0.29220256  1
  Cl  Cl36  1  0.50932711  0.35873429  0.33702888  1
  Cl  Cl37  1  0.37240484  0.40892731  0.59030745  1
  Cl  Cl38  1  0.95856529  0.11064758  0.60787572  1
  Cl  Cl39  1  0.35873429  0.50932711  0.83702888  1
