# generated using pymatgen
data_Al3Bi5Br12
_symmetry_space_group_name_H-M   'P 1'
_cell_length_a   12.65976660
_cell_length_b   12.65976660
_cell_length_c   12.65976598
_cell_angle_alpha   58.82584704
_cell_angle_beta   58.82584704
_cell_angle_gamma   58.82584979
_symmetry_Int_Tables_number   1
_chemical_formula_structural   Al3Bi5Br12
_chemical_formula_sum   'Al6 Bi10 Br24'
_cell_volume   1396.23881261
_cell_formula_units_Z   2
loop_
 _symmetry_equiv_pos_site_id
 _symmetry_equiv_pos_as_xyz
  1  'x, y, z'
loop_
 _atom_site_type_symbol
 _atom_site_label
 _atom_site_symmetry_multiplicity
 _atom_site_fract_x
 _atom_site_fract_y
 _atom_site_fract_z
 _atom_site_occupancy
  Al  Al0  1  0.23520757  0.26479243  0.75000000  1
  Al  Al1  1  0.26479243  0.75000000  0.23520757  1
  Al  Al2  1  0.76479243  0.73520757  0.25000000  1
  Al  Al3  1  0.25000000  0.76479243  0.73520757  1
  Al  Al4  1  0.75000000  0.23520757  0.26479243  1
  Al  Al5  1  0.73520757  0.25000000  0.76479243  1
  Bi  Bi6  1  0.67282455  0.67282455  0.67282455  1
  Bi  Bi7  1  0.17282455  0.17282455  0.17282455  1
  Bi  Bi8  1  0.32717545  0.32717545  0.32717545  1
  Bi  Bi9  1  0.40068149  0.09931851  0.25000000  1
  Bi  Bi10  1  0.25000000  0.40068149  0.09931851  1
  Bi  Bi11  1  0.09931851  0.25000000  0.40068149  1
  Bi  Bi12  1  0.59931851  0.90068149  0.75000000  1
  Bi  Bi13  1  0.82717545  0.82717545  0.82717545  1
  Bi  Bi14  1  0.75000000  0.59931851  0.90068149  1
  Bi  Bi15  1  0.90068149  0.75000000  0.59931851  1
  Br  Br16  1  0.09273016  0.70034101  0.27715657  1
  Br  Br17  1  0.45209404  0.57069594  0.19594554  1
  Br  Br18  1  0.72284342  0.90726984  0.29965899  1
  Br  Br19  1  0.04790596  0.30405446  0.92930406  1
  Br  Br20  1  0.29965899  0.72284342  0.90726984  1
  Br  Br21  1  0.92930406  0.04790596  0.30405446  1
  Br  Br22  1  0.07069594  0.95209404  0.69594554  1
  Br  Br23  1  0.77715658  0.20034101  0.59273016  1
  Br  Br24  1  0.70034101  0.27715658  0.09273016  1
  Br  Br25  1  0.69594554  0.07069594  0.95209404  1
  Br  Br26  1  0.20034101  0.59273016  0.77715657  1
  Br  Br27  1  0.40726984  0.22284342  0.79965899  1
  Br  Br28  1  0.42930406  0.80405446  0.54790596  1
  Br  Br29  1  0.19594554  0.45209404  0.57069594  1
  Br  Br30  1  0.79965899  0.40726984  0.22284343  1
  Br  Br31  1  0.54790596  0.42930406  0.80405446  1
  Br  Br32  1  0.95209404  0.69594554  0.07069594  1
  Br  Br33  1  0.22284342  0.79965899  0.40726984  1
  Br  Br34  1  0.57069594  0.19594554  0.45209404  1
  Br  Br35  1  0.80405446  0.54790596  0.42930406  1
  Br  Br36  1  0.90726984  0.29965899  0.72284343  1
  Br  Br37  1  0.27715658  0.09273016  0.70034101  1
  Br  Br38  1  0.30405446  0.92930406  0.04790596  1
  Br  Br39  1  0.59273016  0.77715658  0.20034101  1
