# generated using pymatgen
data_Na2H4Pt
_symmetry_space_group_name_H-M   'P 1'
_cell_length_a   4.94363168
_cell_length_b   4.94363168
_cell_length_c   4.94363168
_cell_angle_alpha   116.61262121
_cell_angle_beta   116.61262121
_cell_angle_gamma   95.97461996
_symmetry_Int_Tables_number   1
_chemical_formula_structural   Na2H4Pt
_chemical_formula_sum   'Na2 H4 Pt1'
_cell_volume   89.28112921
_cell_formula_units_Z   1
loop_
 _symmetry_equiv_pos_site_id
 _symmetry_equiv_pos_as_xyz
  1  'x, y, z'
loop_
 _atom_site_type_symbol
 _atom_site_label
 _atom_site_symmetry_multiplicity
 _atom_site_fract_x
 _atom_site_fract_y
 _atom_site_fract_z
 _atom_site_occupancy
  Na  Na0  1  0.75000000  0.25000000  0.50000000  1
  Na  Na1  1  0.25000000  0.75000000  0.50000000  1
  H  H2  1  0.22394734  0.22394734  0.44789368  1
  H  H3  1  0.77605266  0.77605266  0.55210632  1
  H  H4  1  0.22394734  0.77605266  -0.00000000  1
  H  H5  1  0.77605266  0.22394734  0.00000000  1
  Pt  Pt6  1  0.00000000  -0.00000000  0.00000000  1
