# generated using pymatgen
data_Cs3Tm2I9
_symmetry_space_group_name_H-M   'P 1'
_cell_length_a   8.47165353
_cell_length_b   8.47167861
_cell_length_c   21.36661097
_cell_angle_alpha   89.98610072
_cell_angle_beta   90.01359199
_cell_angle_gamma   119.99521612
_symmetry_Int_Tables_number   1
_chemical_formula_structural   Cs3Tm2I9
_chemical_formula_sum   'Cs6 Tm4 I18'
_cell_volume   1328.08187004
_cell_formula_units_Z   2
loop_
 _symmetry_equiv_pos_site_id
 _symmetry_equiv_pos_as_xyz
  1  'x, y, z'
loop_
 _atom_site_type_symbol
 _atom_site_label
 _atom_site_symmetry_multiplicity
 _atom_site_fract_x
 _atom_site_fract_y
 _atom_site_fract_z
 _atom_site_occupancy
  Cs  Cs0  1  0.66665526  0.33333988  0.56848902  1
  Cs  Cs1  1  -0.00001657  0.00000149  0.25001125  1
  Cs  Cs2  1  0.33331859  0.66667920  0.06849745  1
  Cs  Cs3  1  0.33332328  0.66667465  0.43151506  1
  Cs  Cs4  1  -0.00002223  0.00002019  0.74998673  1
  Cs  Cs5  1  0.66664844  0.33335120  0.93149632  1
  Tm  Tm6  1  0.66665738  0.33333101  0.34393864  1
  Tm  Tm7  1  0.33331949  0.66669754  0.84391312  1
  Tm  Tm8  1  0.33334446  0.66666729  0.65604567  1
  Tm  Tm9  1  0.66663282  0.33334306  0.15610712  1
  I  I10  1  0.50561042  0.49438822  0.24996272  1
  I  I11  1  0.83544816  0.67037054  0.08581768  1
  I  I12  1  0.32970947  0.16483604  0.41423594  1
  I  I13  1  0.16495808  0.83538468  0.91418181  1
  I  I14  1  0.16481887  0.32972056  0.58575618  1
  I  I15  1  0.32961917  0.16456400  0.08580561  1
  I  I16  1  0.16486497  0.83512747  0.58573027  1
  I  I17  1  0.67025958  0.83507694  0.58573059  1
  I  I18  1  0.98873875  0.49437369  0.25003917  1
  I  I19  1  0.01125766  0.50564591  0.74997073  1
  I  I20  1  0.50567155  0.01120028  0.25003585  1
  I  I21  1  0.67023919  0.83513264  0.91424024  1
  I  I22  1  0.83513760  0.16486566  0.08576291  1
  I  I23  1  0.49436027  0.98872231  0.74998071  1
  I  I24  1  0.83514321  0.16484289  0.41427472  1
  I  I25  1  0.16479291  0.32974147  0.91425959  1
  I  I26  1  0.83513225  0.67027750  0.41423177  1
  I  I27  1  0.49437597  0.50562369  0.74998113  1
