# generated using pymatgen
data_K2P3
_symmetry_space_group_name_H-M   'P 1'
_cell_length_a   12.06045282
_cell_length_b   10.35578808
_cell_length_c   8.57298214
_cell_angle_alpha   78.53816849
_cell_angle_beta   57.30232702
_cell_angle_gamma   44.15950449
_symmetry_Int_Tables_number   1
_chemical_formula_structural   K2P3
_chemical_formula_sum   'K8 P12'
_cell_volume   594.27234501
_cell_formula_units_Z   4
loop_
 _symmetry_equiv_pos_site_id
 _symmetry_equiv_pos_as_xyz
  1  'x, y, z'
loop_
 _atom_site_type_symbol
 _atom_site_label
 _atom_site_symmetry_multiplicity
 _atom_site_fract_x
 _atom_site_fract_y
 _atom_site_fract_z
 _atom_site_occupancy
  K  K0  1  0.87385900  0.88131400  0.62344800  1
  K  K1  1  0.62032900  0.63127400  0.87481300  1
  K  K2  1  0.13041300  0.13931100  0.86561100  1
  K  K3  1  0.85740300  0.86506000  0.13929500  1
  K  K4  1  0.38061400  0.38848900  0.11676800  1
  K  K5  1  0.62939900  0.62379400  0.37657700  1
  K  K6  1  0.37575700  0.37361000  0.61900200  1
  K  K7  1  0.10756600  0.11976300  0.39201300  1
  P  P8  1  0.30089400  0.70411500  0.85070600  1
  P  P9  1  0.39879400  0.10634500  0.39187400  1
  P  P10  1  0.14433300  0.85065800  0.14663900  1
  P  P11  1  0.54033100  0.95532200  0.10719600  1
  P  P12  1  0.84925200  0.15199800  0.85782300  1
  P  P13  1  0.14427900  0.84837800  0.70502400  1
  P  P14  1  0.10576600  0.39845400  0.53846200  1
  P  P15  1  0.10955900  0.39384400  0.09833200  1
  P  P16  1  0.83979800  0.15207900  0.30159100  1
  P  P17  1  0.94495600  0.54677500  0.40576200  1
  P  P18  1  0.70508900  0.29457900  0.15242700  1
  P  P19  1  0.40614700  0.09705900  0.95510000  1
