# generated using pymatgen
data_Na2LiFe(Si2O5)3
_symmetry_space_group_name_H-M   'P 1'
_cell_length_a   11.31473041
_cell_length_b   11.31473041
_cell_length_c   10.22529000
_cell_angle_alpha   90.00000000
_cell_angle_beta   90.00000000
_cell_angle_gamma   101.77116549
_symmetry_Int_Tables_number   1
_chemical_formula_structural   Na2LiFe(Si2O5)3
_chemical_formula_sum   'Na8 Li4 Fe4 Si24 O60'
_cell_volume   1281.54398900
_cell_formula_units_Z   4
loop_
 _symmetry_equiv_pos_site_id
 _symmetry_equiv_pos_as_xyz
  1  'x, y, z'
loop_
 _atom_site_type_symbol
 _atom_site_label
 _atom_site_symmetry_multiplicity
 _atom_site_fract_x
 _atom_site_fract_y
 _atom_site_fract_z
 _atom_site_occupancy
  Na  Na0  1  0.91572700  0.08427300  0.74842100  1
  Na  Na1  1  0.58427300  0.41572700  0.24842100  1
  Na  Na2  1  0.08427300  0.91572700  0.25157900  1
  Na  Na3  1  0.41572700  0.58427300  0.75157900  1
  Na  Na4  1  0.97426100  0.52573900  0.75000000  1
  Na  Na5  1  0.52573900  0.97426100  0.25000000  1
  Na  Na6  1  0.02573900  0.47426100  0.25000000  1
  Na  Na7  1  0.47426100  0.02573900  0.75000000  1
  Li  Li8  1  0.74792800  0.74792800  0.00000000  1
  Li  Li9  1  0.24792800  0.24792800  0.50000000  1
  Li  Li10  1  0.25207200  0.25207200  0.00000000  1
  Li  Li11  1  0.75207200  0.75207200  0.50000000  1
  Fe  Fe12  1  0.16355100  0.33644900  0.75000000  1
  Fe  Fe13  1  0.33644900  0.16355100  0.25000000  1
  Fe  Fe14  1  0.83644900  0.66355100  0.25000000  1
  Fe  Fe15  1  0.66355100  0.83644900  0.75000000  1
  Si  Si16  1  0.01948100  0.75612200  0.98697900  1
  Si  Si17  1  0.68507000  0.54094800  0.80698400  1
  Si  Si18  1  0.95905200  0.81493000  0.69301600  1
  Si  Si19  1  0.54094800  0.68507000  0.19301600  1
  Si  Si20  1  0.18507000  0.04094800  0.69301600  1
  Si  Si21  1  0.31493000  0.45905200  0.19301600  1
  Si  Si22  1  0.04094800  0.18507000  0.30698400  1
  Si  Si23  1  0.45905200  0.31493000  0.80698400  1
  Si  Si24  1  0.75612200  0.01948100  0.01302100  1
  Si  Si25  1  0.74387800  0.48051900  0.51302100  1
  Si  Si26  1  0.81493000  0.95905200  0.30698400  1
  Si  Si27  1  0.48051900  0.74387800  0.48697900  1
  Si  Si28  1  0.24387800  0.98051900  0.98697900  1
  Si  Si29  1  0.25612200  0.51948100  0.48697900  1
  Si  Si30  1  0.42319200  0.80158600  0.95811600  1
  Si  Si31  1  0.51948100  0.25612200  0.51302100  1
  Si  Si32  1  0.57680800  0.19841400  0.04188400  1
  Si  Si33  1  0.92319200  0.30158600  0.54188400  1
  Si  Si34  1  0.19841400  0.57680800  0.95811600  1
  Si  Si35  1  0.30158600  0.92319200  0.45811600  1
  Si  Si36  1  0.69841400  0.07680800  0.54188400  1
  Si  Si37  1  0.80158600  0.42319200  0.04188400  1
  Si  Si38  1  0.07680800  0.69841400  0.45811600  1
  Si  Si39  1  0.98051900  0.24387800  0.01302100  1
  O  O40  1  0.35563600  0.90971200  0.00519500  1
  O  O41  1  0.44704100  0.55295900  0.19034300  1
  O  O42  1  0.94704100  0.05295900  0.30965700  1
  O  O43  1  0.55295900  0.44704100  0.80965700  1
  O  O44  1  0.32412000  0.67588000  0.92941300  1
  O  O45  1  0.82412000  0.17588000  0.57058700  1
  O  O46  1  0.67588000  0.32412000  0.07058700  1
  O  O47  1  0.17588000  0.82412000  0.42941300  1
  O  O48  1  0.11619400  0.88380600  0.01548900  1
  O  O49  1  0.38380600  0.61619400  0.51548900  1
  O  O50  1  0.88380600  0.11619400  0.98451100  1
  O  O51  1  0.61619400  0.38380600  0.48451100  1
  O  O52  1  0.00148200  0.66367200  0.32648200  1
  O  O53  1  0.49851800  0.83632800  0.82648200  1
  O  O54  1  0.66367200  0.00148200  0.67351800  1
  O  O55  1  0.83632800  0.49851800  0.17351800  1
  O  O56  1  0.99851800  0.33632800  0.67351800  1
  O  O57  1  0.50148200  0.16367200  0.17351800  1
  O  O58  1  0.33632800  0.99851800  0.32648200  1
  O  O59  1  0.16367200  0.50148200  0.82648200  1
  O  O60  1  0.00223900  0.27958200  0.41283700  1
  O  O61  1  0.49776100  0.22041800  0.91283700  1
  O  O62  1  0.27958200  0.00223900  0.58716300  1
  O  O63  1  0.22041800  0.49776100  0.08716300  1
  O  O64  1  0.02472900  0.25099400  0.16665100  1
  O  O65  1  0.50223900  0.77958200  0.08716300  1
  O  O66  1  0.72041800  0.99776100  0.41283700  1
  O  O67  1  0.77958200  0.50223900  0.91283700  1
  O  O68  1  0.67346500  0.66357500  0.16288900  1
  O  O69  1  0.82653500  0.83642500  0.66288900  1
  O  O70  1  0.66357500  0.67346500  0.83711100  1
  O  O71  1  0.83642500  0.82653500  0.33711100  1
  O  O72  1  0.32653500  0.33642500  0.83711100  1
  O  O73  1  0.17346500  0.16357500  0.33711100  1
  O  O74  1  0.33642500  0.32653500  0.16288900  1
  O  O75  1  0.16357500  0.17346500  0.66288900  1
  O  O76  1  0.09028800  0.64436400  0.00519500  1
  O  O77  1  0.40971200  0.85563600  0.50519500  1
  O  O78  1  0.64436400  0.09028800  0.99480500  1
  O  O79  1  0.85563600  0.40971200  0.49480500  1
  O  O80  1  0.90971200  0.35563600  0.99480500  1
  O  O81  1  0.59028800  0.14436400  0.49480500  1
  O  O82  1  0.05295900  0.94704100  0.69034300  1
  O  O83  1  0.14436400  0.59028800  0.50519500  1
  O  O84  1  0.24916900  0.40818000  0.58475900  1
  O  O85  1  0.25083100  0.09182000  0.08475900  1
  O  O86  1  0.40818000  0.24916900  0.41524100  1
  O  O87  1  0.09182000  0.25083100  0.91524100  1
  O  O88  1  0.75083100  0.59182000  0.41524100  1
  O  O89  1  0.74916900  0.90818000  0.91524100  1
  O  O90  1  0.59182000  0.75083100  0.58475900  1
  O  O91  1  0.90818000  0.74916900  0.08475900  1
  O  O92  1  0.75099400  0.52472900  0.66665100  1
  O  O93  1  0.74900600  0.97527100  0.16665100  1
  O  O94  1  0.52472900  0.75099400  0.33334900  1
  O  O95  1  0.97527100  0.74900600  0.83334900  1
  O  O96  1  0.24900600  0.47527100  0.33334900  1
  O  O97  1  0.25099400  0.02472900  0.83334900  1
  O  O98  1  0.47527100  0.24900600  0.66665100  1
  O  O99  1  0.99776100  0.72041800  0.58716300  1
