# generated using pymatgen
data_H3N
_symmetry_space_group_name_H-M   'P 1'
_cell_length_a   3.45836552
_cell_length_b   5.80512614
_cell_length_c   5.68899783
_cell_angle_alpha   90.00000000
_cell_angle_beta   90.00000000
_cell_angle_gamma   90.00000000
_symmetry_Int_Tables_number   1
_chemical_formula_structural   H3N
_chemical_formula_sum   'H12 N4'
_cell_volume   114.21373177
_cell_formula_units_Z   4
loop_
 _symmetry_equiv_pos_site_id
 _symmetry_equiv_pos_as_xyz
  1  'x, y, z'
loop_
 _atom_site_type_symbol
 _atom_site_label
 _atom_site_symmetry_multiplicity
 _atom_site_fract_x
 _atom_site_fract_y
 _atom_site_fract_z
 _atom_site_occupancy
  H  H0  1  0.62224258  0.70009816  0.26684493  1
  H  H1  1  0.87775742  0.29990184  0.76684493  1
  H  H2  1  0.12224258  0.79990184  0.73315507  1
  H  H3  1  0.37775742  0.20009816  0.23315507  1
  H  H4  1  0.01040153  0.83646925  0.18183847  1
  H  H5  1  0.48959847  0.16353075  0.68183847  1
  H  H6  1  0.51040153  0.66353075  0.81816153  1
  H  H7  1  0.98959847  0.33646925  0.31816153  1
  H  H8  1  0.77122001  0.92854016  0.40931745  1
  H  H9  1  0.72877999  0.07145984  0.90931745  1
  H  H10  1  0.27122001  0.57145984  0.59068255  1
  H  H11  1  0.22877999  0.42854016  0.09068255  1
  N  N12  1  0.73782643  0.86044013  0.24489601  1
  N  N13  1  0.76217357  0.13955987  0.74489601  1
  N  N14  1  0.23782643  0.63955987  0.75510399  1
  N  N15  1  0.26217357  0.36044013  0.25510399  1
