# generated using pymatgen
data_K2NbAgS4
_symmetry_space_group_name_H-M   'P 1'
_cell_length_a   13.38617315
_cell_length_b   11.93209941
_cell_length_c   7.38939590
_cell_angle_alpha   84.21042910
_cell_angle_beta   62.47733720
_cell_angle_gamma   33.31223370
_symmetry_Int_Tables_number   1
_chemical_formula_structural   K2NbAgS4
_chemical_formula_sum   'K4 Nb2 Ag2 S8'
_cell_volume   465.90223629
_cell_formula_units_Z   2
loop_
 _symmetry_equiv_pos_site_id
 _symmetry_equiv_pos_as_xyz
  1  'x, y, z'
loop_
 _atom_site_type_symbol
 _atom_site_label
 _atom_site_symmetry_multiplicity
 _atom_site_fract_x
 _atom_site_fract_y
 _atom_site_fract_z
 _atom_site_occupancy
  K  K0  1  0.80334400  0.81106400  0.44744600  1
  K  K1  1  0.20402900  0.18645000  0.54838000  1
  K  K2  1  0.43785300  0.45344900  0.80795200  1
  K  K3  1  0.55682300  0.55157300  0.18865100  1
  Nb  Nb4  1  0.62790800  0.62346900  0.62901700  1
  Nb  Nb5  1  0.36990300  0.38148700  0.37343900  1
  Ag  Ag6  1  0.12222000  0.13104200  0.12937100  1
  Ag  Ag7  1  0.86827900  0.88394700  0.87873200  1
  S  S8  1  0.12322500  0.74055000  0.42606600  1
  S  S9  1  0.20934900  0.42181400  0.74557900  1
  S  S10  1  0.43012000  0.20363500  0.12240100  1
  S  S11  1  0.74576500  0.12338400  0.20641800  1
  S  S12  1  0.89118000  0.24533800  0.56177500  1
  S  S13  1  0.25927700  0.87603200  0.78663200  1
  S  S14  1  0.56763400  0.79844500  0.87949200  1
  S  S15  1  0.79383600  0.56788400  0.24936100  1
