# generated using pymatgen
data_CdCl2
_symmetry_space_group_name_H-M   'P 1'
_cell_length_a   11.90335028
_cell_length_b   5.16723953
_cell_length_c   6.62722721
_cell_angle_alpha   141.64945445
_cell_angle_beta   153.98724693
_cell_angle_gamma   29.28240335
_symmetry_Int_Tables_number   1
_chemical_formula_structural   CdCl2
_chemical_formula_sum   'Cd1 Cl2'
_cell_volume   87.43992046
_cell_formula_units_Z   1
loop_
 _symmetry_equiv_pos_site_id
 _symmetry_equiv_pos_as_xyz
  1  'x, y, z'
loop_
 _atom_site_type_symbol
 _atom_site_label
 _atom_site_symmetry_multiplicity
 _atom_site_fract_x
 _atom_site_fract_y
 _atom_site_fract_z
 _atom_site_occupancy
  Cd  Cd0  1  0.84081489  0.00121787  0.67569323  1
  Cl  Cl1  1  0.83371068  0.23042486  0.16408882  1
  Cl  Cl2  1  0.33833542  0.76197026  0.15897094  1
