# generated using pymatgen
data_Gd4Au2O9
_symmetry_space_group_name_H-M   'P 1'
_cell_length_a   5.96630748
_cell_length_b   11.77820526
_cell_length_c   11.77936372
_cell_angle_alpha   90.00000000
_cell_angle_beta   90.00000000
_cell_angle_gamma   90.00000000
_symmetry_Int_Tables_number   1
_chemical_formula_structural   Gd4Au2O9
_chemical_formula_sum   'Gd16 Au8 O36'
_cell_volume   827.76409009
_cell_formula_units_Z   4
loop_
 _symmetry_equiv_pos_site_id
 _symmetry_equiv_pos_as_xyz
  1  'x, y, z'
loop_
 _atom_site_type_symbol
 _atom_site_label
 _atom_site_symmetry_multiplicity
 _atom_site_fract_x
 _atom_site_fract_y
 _atom_site_fract_z
 _atom_site_occupancy
  Gd  Gd0  1  0.24118260  0.40962168  0.51085195  1
  Gd  Gd1  1  0.74118260  0.09037832  0.01085195  1
  Gd  Gd2  1  0.25881740  0.59037832  0.01085195  1
  Gd  Gd3  1  0.75881740  0.90962168  0.51085195  1
  Gd  Gd4  1  0.30221880  0.26404290  0.15874570  1
  Gd  Gd5  1  0.74118260  0.40962168  0.98914805  1
  Gd  Gd6  1  0.69778120  0.76404290  0.15874570  1
  Gd  Gd7  1  0.69778120  0.73595710  0.84125430  1
  Gd  Gd8  1  0.75881740  0.59037832  0.48914805  1
  Gd  Gd9  1  0.30221880  0.23595710  0.84125430  1
  Gd  Gd10  1  0.25881740  0.90962168  0.98914805  1
  Gd  Gd11  1  0.19778120  0.76404290  0.34125430  1
  Gd  Gd12  1  0.19778120  0.73595710  0.65874570  1
  Gd  Gd13  1  0.80221880  0.26404290  0.34125430  1
  Gd  Gd14  1  0.24118260  0.09037832  0.48914805  1
  Gd  Gd15  1  0.80221880  0.23595710  0.65874570  1
  Au  Au16  1  0.08015912  0.48911777  0.77172733  1
  Au  Au17  1  0.91984088  0.98911777  0.77172733  1
  Au  Au18  1  0.41984088  0.98911777  0.72827267  1
  Au  Au19  1  0.58015912  0.48911777  0.72827267  1
  Au  Au20  1  0.91984088  0.51088223  0.22827267  1
  Au  Au21  1  0.08015912  0.01088223  0.22827267  1
  Au  Au22  1  0.41984088  0.51088223  0.27172733  1
  Au  Au23  1  0.58015912  0.01088223  0.27172733  1
  O  O24  1  0.93895197  0.35065123  0.16279513  1
  O  O25  1  0.12706068  0.15973778  0.30311091  1
  O  O26  1  0.43762251  0.05416652  0.88588258  1
  O  O27  1  0.93762251  0.05416652  0.61411742  1
  O  O28  1  0.62706068  0.15973778  0.19688909  1
  O  O29  1  0.06237749  0.55416652  0.61411742  1
  O  O30  1  0.11283076  0.08907791  0.07565320  1
  O  O31  1  0.61283076  0.08907791  0.42434680  1
  O  O32  1  0.93895197  0.14934877  0.83720487  1
  O  O33  1  0.37293932  0.84026222  0.80311091  1
  O  O34  1  0.88716924  0.58907791  0.07565320  1
  O  O35  1  0.87293932  0.65973778  0.30311091  1
  O  O36  1  0.61283076  0.41092209  0.57565320  1
  O  O37  1  0.38716924  0.58907791  0.42434680  1
  O  O38  1  0.56104803  0.85065123  0.33720487  1
  O  O39  1  0.43895197  0.14934877  0.66279513  1
  O  O40  1  0.47700315  0.75000000  -0.00000000  1
  O  O41  1  0.56237749  0.94583348  0.11411742  1
  O  O42  1  0.88716924  0.91092209  0.92434680  1
  O  O43  1  0.97700315  0.75000000  0.50000000  1
  O  O44  1  0.43762251  0.44583348  0.11411742  1
  O  O45  1  0.43895197  0.35065123  0.33720487  1
  O  O46  1  0.12706068  0.34026222  0.69688909  1
  O  O47  1  0.02299685  0.25000000  0.50000000  1
  O  O48  1  0.06104803  0.64934877  0.83720487  1
  O  O49  1  0.37293932  0.65973778  0.19688909  1
  O  O50  1  0.87293932  0.84026222  0.69688909  1
  O  O51  1  0.11283076  0.41092209  0.92434680  1
  O  O52  1  0.06104803  0.85065123  0.16279513  1
  O  O53  1  0.56237749  0.55416652  0.88588258  1
  O  O54  1  0.62706068  0.34026222  0.80311091  1
  O  O55  1  0.93762251  0.44583348  0.38588258  1
  O  O56  1  0.56104803  0.64934877  0.66279513  1
  O  O57  1  0.52299685  0.25000000  -0.00000000  1
  O  O58  1  0.38716924  0.91092209  0.57565320  1
  O  O59  1  0.06237749  0.94583348  0.38588258  1
