# generated using pymatgen
data_CaO2
_symmetry_space_group_name_H-M   'P 1'
_cell_length_a   3.28024430
_cell_length_b   4.08084149
_cell_length_c   4.08084149
_cell_angle_alpha   47.39500092
_cell_angle_beta   66.30249954
_cell_angle_gamma   66.30249954
_symmetry_Int_Tables_number   1
_chemical_formula_structural   CaO2
_chemical_formula_sum   'Ca1 O2'
_cell_volume   36.12744563
_cell_formula_units_Z   1
loop_
 _symmetry_equiv_pos_site_id
 _symmetry_equiv_pos_as_xyz
  1  'x, y, z'
loop_
 _atom_site_type_symbol
 _atom_site_label
 _atom_site_symmetry_multiplicity
 _atom_site_fract_x
 _atom_site_fract_y
 _atom_site_fract_z
 _atom_site_occupancy
  Ca  Ca0  1  0.50000000  0.50000000  0.50000000  1
  O  O1  1  0.11204902  0.88795098  0.88795098  1
  O  O2  1  0.88795098  0.11204902  0.11204902  1
