# generated using pymatgen
data_Cr(CO)6
_symmetry_space_group_name_H-M   'P 1'
_cell_length_a   6.20407855
_cell_length_b   10.86429383
_cell_length_c   11.50555702
_cell_angle_alpha   90.00000000
_cell_angle_beta   90.00000000
_cell_angle_gamma   90.00000000
_symmetry_Int_Tables_number   1
_chemical_formula_structural   Cr(CO)6
_chemical_formula_sum   'Cr4 C24 O24'
_cell_volume   775.50828103
_cell_formula_units_Z   4
loop_
 _symmetry_equiv_pos_site_id
 _symmetry_equiv_pos_as_xyz
  1  'x, y, z'
loop_
 _atom_site_type_symbol
 _atom_site_label
 _atom_site_symmetry_multiplicity
 _atom_site_fract_x
 _atom_site_fract_y
 _atom_site_fract_z
 _atom_site_occupancy
  Cr  Cr0  1  0.06091848  0.25000000  0.12779209  1
  Cr  Cr1  1  0.56091848  0.75000000  0.37220791  1
  Cr  Cr2  1  0.93908152  0.75000000  0.87220791  1
  Cr  Cr3  1  0.43908152  0.25000000  0.62779209  1
  C  C4  1  0.05736683  0.87444958  0.77604061  1
  C  C5  1  0.94263317  0.37444958  0.22395939  1
  C  C6  1  0.94263317  0.12555042  0.22395939  1
  C  C7  1  0.82271477  0.87269368  0.97049371  1
  C  C8  1  0.67728523  0.87269368  0.47049371  1
  C  C9  1  0.80403733  0.25000000  0.03929474  1
  C  C10  1  0.32271477  0.12730632  0.52950629  1
  C  C11  1  0.17728523  0.12730632  0.02950629  1
  C  C12  1  0.67728523  0.62730632  0.47049371  1
  C  C13  1  0.30403733  0.75000000  0.46070526  1
  C  C14  1  0.17728523  0.37269368  0.02950629  1
  C  C15  1  0.44263317  0.87444958  0.27604061  1
  C  C16  1  0.18417446  0.25000000  0.71772598  1
  C  C17  1  0.69596267  0.25000000  0.53929474  1
  C  C18  1  0.55736683  0.37444958  0.72395939  1
  C  C19  1  0.55736683  0.12555042  0.72395939  1
  C  C20  1  0.19596267  0.75000000  0.96070526  1
  C  C21  1  0.82271477  0.62730632  0.97049371  1
  C  C22  1  0.32271477  0.37269368  0.52950629  1
  C  C23  1  0.44263317  0.62555042  0.27604061  1
  C  C24  1  0.05736683  0.62555042  0.77604061  1
  C  C25  1  0.31582554  0.25000000  0.21772598  1
  C  C26  1  0.68417446  0.75000000  0.78227402  1
  C  C27  1  0.81582554  0.75000000  0.28227402  1
  O  O28  1  0.63025157  0.04910971  0.78079162  1
  O  O29  1  0.86974843  0.04910971  0.28079162  1
  O  O30  1  0.36974843  0.95089029  0.21920838  1
  O  O31  1  0.35346823  0.75000000  0.01359794  1
  O  O32  1  0.25381198  0.05280281  0.46885874  1
  O  O33  1  0.14653177  0.75000000  0.51359794  1
  O  O34  1  0.52875702  0.75000000  0.72737407  1
  O  O35  1  0.64653177  0.25000000  0.98640206  1
  O  O36  1  0.24618802  0.05280281  0.96885874  1
  O  O37  1  0.97124298  0.75000000  0.22737407  1
  O  O38  1  0.13025157  0.54910971  0.71920838  1
  O  O39  1  0.36974843  0.54910971  0.21920838  1
  O  O40  1  0.75381198  0.94719719  0.03114126  1
  O  O41  1  0.25381198  0.44719719  0.46885874  1
  O  O42  1  0.75381198  0.55280281  0.03114126  1
  O  O43  1  0.24618802  0.44719719  0.96885874  1
  O  O44  1  0.13025157  0.95089029  0.71920838  1
  O  O45  1  0.74618802  0.94719719  0.53114126  1
  O  O46  1  0.74618802  0.55280281  0.53114126  1
  O  O47  1  0.63025157  0.45089029  0.78079162  1
  O  O48  1  0.02875702  0.25000000  0.77262593  1
  O  O49  1  0.47124298  0.25000000  0.27262593  1
  O  O50  1  0.86974843  0.45089029  0.28079162  1
  O  O51  1  0.85346823  0.25000000  0.48640206  1
