# generated using pymatgen
data_K2VCuS4
_symmetry_space_group_name_H-M   'P 1'
_cell_length_a   13.23790720
_cell_length_b   11.81425633
_cell_length_c   7.09938163
_cell_angle_alpha   84.96039859
_cell_angle_beta   62.74866339
_cell_angle_gamma   32.29093801
_symmetry_Int_Tables_number   1
_chemical_formula_structural   K2VCuS4
_chemical_formula_sum   'K4 V2 Cu2 S8'
_cell_volume   409.48035839
_cell_formula_units_Z   2
loop_
 _symmetry_equiv_pos_site_id
 _symmetry_equiv_pos_as_xyz
  1  'x, y, z'
loop_
 _atom_site_type_symbol
 _atom_site_label
 _atom_site_symmetry_multiplicity
 _atom_site_fract_x
 _atom_site_fract_y
 _atom_site_fract_z
 _atom_site_occupancy
  K  K0  1  0.19306500  0.20074900  0.56188400  1
  K  K1  1  0.45115800  0.44276700  0.80595000  1
  K  K2  1  0.55915700  0.54853900  0.18643600  1
  K  K3  1  0.81134100  0.79973400  0.43917100  1
  V  V4  1  0.63315900  0.61984400  0.62074100  1
  V  V5  1  0.37062800  0.37564200  0.37548300  1
  Cu  Cu6  1  0.88123800  0.87269000  0.86988400  1
  Cu  Cu7  1  0.12901900  0.11849600  0.12694500  1
  S  S8  1  0.54618700  0.81114500  0.90451800  1
  S  S9  1  0.45135400  0.18739700  0.09860000  1
  S  S10  1  0.18667400  0.45283100  0.75083800  1
  S  S11  1  0.09430100  0.76604000  0.45634500  1
  S  S12  1  0.23365100  0.90600800  0.81733900  1
  S  S13  1  0.89210000  0.24896500  0.55545800  1
  S  S14  1  0.81456400  0.54327700  0.23544100  1
  S  S15  1  0.75824400  0.10121000  0.17882600  1
