# generated using pymatgen
data_BN
_symmetry_space_group_name_H-M   'P 1'
_cell_length_a   3.71265615
_cell_length_b   3.71265615
_cell_length_c   2.50170625
_cell_angle_alpha   99.71037485
_cell_angle_beta   99.71037485
_cell_angle_gamma   140.59628501
_symmetry_Int_Tables_number   1
_chemical_formula_structural   BN
_chemical_formula_sum   'B1 N1'
_cell_volume   18.95264632
_cell_formula_units_Z   1
loop_
 _symmetry_equiv_pos_site_id
 _symmetry_equiv_pos_as_xyz
  1  'x, y, z'
loop_
 _atom_site_type_symbol
 _atom_site_label
 _atom_site_symmetry_multiplicity
 _atom_site_fract_x
 _atom_site_fract_y
 _atom_site_fract_z
 _atom_site_occupancy
  B  B0  1  0.00004865  0.00004865  0.00009731  1
  N  N1  1  0.66665135  0.66665135  0.33330269  1
