# generated using pymatgen
data_Ca3InP3
_symmetry_space_group_name_H-M   'P 1'
_cell_length_a   4.15225447
_cell_length_b   12.06461163
_cell_length_c   13.52466107
_cell_angle_alpha   90.00000000
_cell_angle_beta   90.00000000
_cell_angle_gamma   90.00000000
_symmetry_Int_Tables_number   1
_chemical_formula_structural   Ca3InP3
_chemical_formula_sum   'Ca12 In4 P12'
_cell_volume   677.52246181
_cell_formula_units_Z   4
loop_
 _symmetry_equiv_pos_site_id
 _symmetry_equiv_pos_as_xyz
  1  'x, y, z'
loop_
 _atom_site_type_symbol
 _atom_site_label
 _atom_site_symmetry_multiplicity
 _atom_site_fract_x
 _atom_site_fract_y
 _atom_site_fract_z
 _atom_site_occupancy
  Ca  Ca0  1  0.75000000  0.84611030  0.00462103  1
  Ca  Ca1  1  0.75000000  0.76897114  0.28905416  1
  Ca  Ca2  1  0.75000000  0.34611030  0.49537897  1
  Ca  Ca3  1  0.25000000  0.65388970  0.50462103  1
  Ca  Ca4  1  0.25000000  0.15388970  0.99537897  1
  Ca  Ca5  1  0.25000000  0.43470271  0.89793580  1
  Ca  Ca6  1  0.25000000  0.93470271  0.60206420  1
  Ca  Ca7  1  0.75000000  0.56529729  0.10206420  1
  Ca  Ca8  1  0.25000000  0.23102886  0.71094584  1
  Ca  Ca9  1  0.25000000  0.73102886  0.78905416  1
  Ca  Ca10  1  0.75000000  0.06529729  0.39793580  1
  Ca  Ca11  1  0.75000000  0.26897114  0.21094584  1
  In  In12  1  0.25000000  0.44832742  0.30023515  1
  In  In13  1  0.75000000  0.05167258  0.80023515  1
  In  In14  1  0.75000000  0.55167258  0.69976485  1
  In  In15  1  0.25000000  0.94832742  0.19976485  1
  P  P16  1  0.25000000  0.95004101  0.86696128  1
  P  P17  1  0.75000000  0.54995899  0.36696128  1
  P  P18  1  0.25000000  0.24645904  0.37162257  1
  P  P19  1  0.75000000  0.25354096  0.87162257  1
  P  P20  1  0.25000000  0.39588719  0.11358911  1
  P  P21  1  0.25000000  0.89588719  0.38641089  1
  P  P22  1  0.25000000  0.74645904  0.12837743  1
  P  P23  1  0.75000000  0.60411281  0.88641089  1
  P  P24  1  0.75000000  0.75354096  0.62837743  1
  P  P25  1  0.25000000  0.45004101  0.63303872  1
  P  P26  1  0.75000000  0.10411281  0.61358911  1
  P  P27  1  0.75000000  0.04995899  0.13303872  1
