# generated using pymatgen
data_Na4H6Ru
_symmetry_space_group_name_H-M   'P 1'
_cell_length_a   6.44269394
_cell_length_b   6.44269394
_cell_length_c   6.44269380
_cell_angle_alpha   89.28601069
_cell_angle_beta   89.28601069
_cell_angle_gamma   89.28599667
_symmetry_Int_Tables_number   1
_chemical_formula_structural   Na4H6Ru
_chemical_formula_sum   'Na8 H12 Ru2'
_cell_volume   267.36352123
_cell_formula_units_Z   2
loop_
 _symmetry_equiv_pos_site_id
 _symmetry_equiv_pos_as_xyz
  1  'x, y, z'
loop_
 _atom_site_type_symbol
 _atom_site_label
 _atom_site_symmetry_multiplicity
 _atom_site_fract_x
 _atom_site_fract_y
 _atom_site_fract_z
 _atom_site_occupancy
  Na  Na0  1  0.25000000  0.25000000  0.25000000  1
  Na  Na1  1  0.75000000  0.75000000  0.75000000  1
  Na  Na2  1  0.86631606  0.63368394  0.25000000  1
  Na  Na3  1  0.25000000  0.86631606  0.63368394  1
  Na  Na4  1  0.63368394  0.25000000  0.86631606  1
  Na  Na5  1  0.75000000  0.13368394  0.36631606  1
  Na  Na6  1  0.36631606  0.75000000  0.13368394  1
  Na  Na7  1  0.13368394  0.36631606  0.75000000  1
  H  H8  1  0.24037742  0.54995607  0.44398181  1
  H  H9  1  0.44398181  0.24037742  0.54995607  1
  H  H10  1  0.54995607  0.44398181  0.24037742  1
  H  H11  1  0.94398181  0.04995607  0.74037742  1
  H  H12  1  0.74037742  0.94398181  0.04995607  1
  H  H13  1  0.04995607  0.74037742  0.94398181  1
  H  H14  1  0.75962258  0.45004393  0.55601819  1
  H  H15  1  0.55601819  0.75962258  0.45004393  1
  H  H16  1  0.45004393  0.55601819  0.75962258  1
  H  H17  1  0.05601819  0.95004393  0.25962258  1
  H  H18  1  0.25962258  0.05601819  0.95004393  1
  H  H19  1  0.95004393  0.25962258  0.05601819  1
  Ru  Ru20  1  0.50000000  0.50000000  0.50000000  1
  Ru  Ru21  1  0.00000000  0.00000000  -0.00000000  1
