# generated using pymatgen
data_BaY(CoO2)4
_symmetry_space_group_name_H-M   'P 1'
_cell_length_a   10.21114100
_cell_length_b   10.95295000
_cell_length_c   12.96876400
_cell_angle_alpha   90.00000000
_cell_angle_beta   90.00000000
_cell_angle_gamma   90.00000000
_symmetry_Int_Tables_number   1
_chemical_formula_structural   BaY(CoO2)4
_chemical_formula_sum   'Ba8 Y8 Co32 O64'
_cell_volume   1450.45401825
_cell_formula_units_Z   8
loop_
 _symmetry_equiv_pos_site_id
 _symmetry_equiv_pos_as_xyz
  1  'x, y, z'
loop_
 _atom_site_type_symbol
 _atom_site_label
 _atom_site_symmetry_multiplicity
 _atom_site_fract_x
 _atom_site_fract_y
 _atom_site_fract_z
 _atom_site_occupancy
  Ba  Ba0  1  0.52891300  0.07489300  0.62687300  1
  Ba  Ba1  1  0.99962600  0.42690500  0.10145300  1
  Ba  Ba2  1  0.99962600  0.92690500  0.89854700  1
  Ba  Ba3  1  0.52891300  0.57489300  0.37312700  1
  Ba  Ba4  1  0.49962600  0.07309500  0.10145300  1
  Ba  Ba5  1  0.02891300  0.92510700  0.37312700  1
  Ba  Ba6  1  0.49962600  0.57309500  0.89854700  1
  Ba  Ba7  1  0.02891300  0.42510700  0.62687300  1
  Y  Y8  1  0.42368300  0.43852700  0.62626300  1
  Y  Y9  1  0.42368300  0.93852700  0.37373700  1
  Y  Y10  1  0.38037100  0.90514900  0.85473000  1
  Y  Y11  1  0.92368300  0.56147300  0.37373700  1
  Y  Y12  1  0.92368300  0.06147300  0.62626300  1
  Y  Y13  1  0.88037100  0.09485100  0.14527000  1
  Y  Y14  1  0.88037100  0.59485100  0.85473000  1
  Y  Y15  1  0.38037100  0.40514900  0.14527000  1
  Co  Co16  1  0.21180000  0.66769100  0.25980700  1
  Co  Co17  1  0.71265300  0.84257000  0.77238200  1
  Co  Co18  1  0.73078600  0.32013000  0.51953300  1
  Co  Co19  1  0.70342400  0.58153300  0.11648200  1
  Co  Co20  1  0.19417400  0.15532200  0.98464100  1
  Co  Co21  1  0.23078600  0.67987000  0.48046700  1
  Co  Co22  1  0.19417400  0.65532200  0.01535900  1
  Co  Co23  1  0.21081300  0.40118700  0.37103100  1
  Co  Co24  1  0.46110200  0.74648400  0.62814000  1
  Co  Co25  1  0.71081200  0.09881300  0.37103100  1
  Co  Co26  1  0.73078600  0.82013000  0.48046700  1
  Co  Co27  1  0.20342400  0.91846700  0.11648200  1
  Co  Co28  1  0.71081200  0.59881300  0.62896900  1
  Co  Co29  1  0.21265300  0.65743000  0.77238200  1
  Co  Co30  1  0.96110200  0.75351600  0.62814000  1
  Co  Co31  1  0.46110200  0.24648400  0.37186000  1
  Co  Co32  1  0.96053700  0.75213800  0.12605400  1
  Co  Co33  1  0.71180000  0.33230900  0.74019300  1
  Co  Co34  1  0.70342400  0.08153300  0.88351800  1
  Co  Co35  1  0.96110200  0.25351600  0.37186000  1
  Co  Co36  1  0.46053700  0.24786200  0.87394600  1
  Co  Co37  1  0.21081300  0.90118700  0.62896900  1
  Co  Co38  1  0.69417400  0.34467800  0.98464100  1
  Co  Co39  1  0.21180000  0.16769100  0.74019300  1
  Co  Co40  1  0.71265300  0.34257000  0.22761800  1
  Co  Co41  1  0.96053700  0.25213800  0.87394600  1
  Co  Co42  1  0.46053700  0.74786200  0.12605400  1
  Co  Co43  1  0.21265300  0.15743000  0.22761800  1
  Co  Co44  1  0.23078600  0.17987000  0.51953300  1
  Co  Co45  1  0.20342400  0.41846700  0.88351800  1
  Co  Co46  1  0.69417400  0.84467800  0.01535900  1
  Co  Co47  1  0.71180000  0.83230900  0.25980700  1
  O  O48  1  0.78360800  0.50019600  0.23761000  1
  O  O49  1  0.01121700  0.41952600  0.87776700  1
  O  O50  1  0.04321900  0.89089500  0.70137200  1
  O  O51  1  0.27138500  0.25022200  0.87115900  1
  O  O52  1  0.63482400  0.46263100  0.55261200  1
  O  O53  1  0.78969200  0.48782100  0.72793400  1
  O  O54  1  0.13482400  0.03736900  0.55261200  1
  O  O55  1  0.53997500  0.85414300  0.73070700  1
  O  O56  1  0.61546500  0.71799500  0.54703300  1
  O  O57  1  0.78969200  0.98782100  0.27206600  1
  O  O58  1  0.27138500  0.75022200  0.12884100  1
  O  O59  1  0.54321900  0.60910500  0.70137200  1
  O  O60  1  0.13482400  0.53736900  0.44738800  1
  O  O61  1  0.28360800  0.99980400  0.23761000  1
  O  O62  1  0.00304600  0.67297300  0.00164000  1
  O  O63  1  0.54321900  0.10910500  0.29862800  1
  O  O64  1  0.51121700  0.08047400  0.87776700  1
  O  O65  1  0.51121700  0.58047400  0.12223300  1
  O  O66  1  0.27775900  0.77465900  0.36673600  1
  O  O67  1  0.02119300  0.17852900  0.75295800  1
  O  O68  1  0.30325600  0.27700100  0.29609600  1
  O  O69  1  0.03997500  0.14585700  0.26929300  1
  O  O70  1  0.74969800  0.01316100  0.01937800  1
  O  O71  1  0.77357600  0.27287300  0.10446800  1
  O  O72  1  0.87496300  0.37763300  0.44814500  1
  O  O73  1  0.88374200  0.12102400  0.44818100  1
  O  O74  1  0.53997500  0.35414300  0.26929300  1
  O  O75  1  0.88374200  0.62102400  0.55181900  1
  O  O76  1  0.87496300  0.87763300  0.55185500  1
  O  O77  1  0.37496300  0.62236700  0.55185500  1
  O  O78  1  0.77357600  0.77287300  0.89553200  1
  O  O79  1  0.50304600  0.82702700  0.00164000  1
  O  O80  1  0.63482400  0.96263100  0.44738800  1
  O  O81  1  0.30325600  0.77700100  0.70390400  1
  O  O82  1  0.02119300  0.67852900  0.24704200  1
  O  O83  1  0.78360800  0.00019600  0.76239000  1
  O  O84  1  0.80325600  0.22299900  0.29609600  1
  O  O85  1  0.11546500  0.78200500  0.54703300  1
  O  O86  1  0.28969200  0.01217900  0.72793400  1
  O  O87  1  0.52119300  0.82147100  0.24704200  1
  O  O88  1  0.01121700  0.91952600  0.12223300  1
  O  O89  1  0.04321900  0.39089400  0.29862800  1
  O  O90  1  0.77775900  0.72534100  0.36673600  1
  O  O91  1  0.24969800  0.98683900  0.98062200  1
  O  O92  1  0.74969800  0.51316100  0.98062200  1
  O  O93  1  0.37496300  0.12236700  0.44814500  1
  O  O94  1  0.77138500  0.24977800  0.87115900  1
  O  O95  1  0.28360800  0.49980400  0.76239000  1
  O  O96  1  0.77138500  0.74977800  0.12884100  1
  O  O97  1  0.50304600  0.32702700  0.99836000  1
  O  O98  1  0.38374200  0.37897600  0.44818100  1
  O  O99  1  0.27357600  0.22712700  0.10446800  1
  O  O100  1  0.77775900  0.22534100  0.63326400  1
  O  O101  1  0.00304600  0.17297300  0.99836000  1
  O  O102  1  0.27357600  0.72712700  0.89553200  1
  O  O103  1  0.38374200  0.87897600  0.55181900  1
  O  O104  1  0.52119300  0.32147100  0.75295800  1
  O  O105  1  0.11546500  0.28200500  0.45296700  1
  O  O106  1  0.80325600  0.72299900  0.70390400  1
  O  O107  1  0.28969200  0.51217900  0.27206600  1
  O  O108  1  0.61546500  0.21799500  0.45296700  1
  O  O109  1  0.03997500  0.64585700  0.73070700  1
  O  O110  1  0.27775900  0.27465900  0.63326400  1
  O  O111  1  0.24969800  0.48683900  0.01937800  1
