# generated using pymatgen
data_Mg4Sb2O9
_symmetry_space_group_name_H-M   'P 1'
_cell_length_a   5.17879035
_cell_length_b   5.56316240
_cell_length_c   11.70701967
_cell_angle_alpha   98.16276452
_cell_angle_beta   102.73882857
_cell_angle_gamma   90.74375438
_symmetry_Int_Tables_number   1
_chemical_formula_structural   Mg4Sb2O9
_chemical_formula_sum   'Mg8 Sb4 O18'
_cell_volume   325.30656307
_cell_formula_units_Z   2
loop_
 _symmetry_equiv_pos_site_id
 _symmetry_equiv_pos_as_xyz
  1  'x, y, z'
loop_
 _atom_site_type_symbol
 _atom_site_label
 _atom_site_symmetry_multiplicity
 _atom_site_fract_x
 _atom_site_fract_y
 _atom_site_fract_z
 _atom_site_occupancy
  Mg  Mg0  1  0.22479817  0.48405613  0.42025644  1
  Mg  Mg1  1  0.61665850  0.32993404  0.23014265  1
  Mg  Mg2  1  0.53700834  0.84355073  0.09666749  1
  Mg  Mg3  1  0.11182970  0.82962820  0.23278413  1
  Mg  Mg4  1  0.88817030  0.17037180  0.76721587  1
  Mg  Mg5  1  0.46299166  0.15644927  0.90333251  1
  Mg  Mg6  1  0.38334150  0.67006596  0.76985735  1
  Mg  Mg7  1  0.77520183  0.51594387  0.57974356  1
  Sb  Sb8  1  0.28560359  0.96937328  0.57297112  1
  Sb  Sb9  1  0.94339717  0.64982339  0.89375964  1
  Sb  Sb10  1  0.05660283  0.35017661  0.10624036  1
  Sb  Sb11  1  0.71439641  0.03062672  0.42702888  1
  O  O12  1  0.72482435  0.90622666  0.83358340  1
  O  O13  1  0.42509456  0.65115726  0.59615781  1
  O  O14  1  0.98308181  0.48301136  0.26334617  1
  O  O15  1  0.06378481  0.22870871  0.50247573  1
  O  O16  1  0.78030609  0.97705235  0.27185558  1
  O  O17  1  0.29188477  0.81867137  0.93278891  1
  O  O18  1  0.36030657  0.86485999  0.40420659  1
  O  O19  1  0.87779371  0.67204851  0.05799364  1
  O  O20  1  0.37251075  0.58131616  0.16575269  1
  O  O21  1  0.62748925  0.41868384  0.83424731  1
  O  O22  1  0.12220629  0.32795149  0.94200636  1
  O  O23  1  0.63969343  0.13514001  0.59579341  1
  O  O24  1  0.70811523  0.18132863  0.06721109  1
  O  O25  1  0.21969391  0.02294765  0.72814442  1
  O  O26  1  0.93621519  0.77129129  0.49752427  1
  O  O27  1  0.01691819  0.51698864  0.73665383  1
  O  O28  1  0.57490544  0.34884274  0.40384219  1
  O  O29  1  0.27517565  0.09377334  0.16641660  1
