# generated using pymatgen
data_P2WO8
_symmetry_space_group_name_H-M   'P 1'
_cell_length_a   5.16120644
_cell_length_b   6.63613492
_cell_length_c   16.44223051
_cell_angle_alpha   90.00000000
_cell_angle_beta   90.00000000
_cell_angle_gamma   90.00000000
_symmetry_Int_Tables_number   1
_chemical_formula_structural   P2WO8
_chemical_formula_sum   'P8 W4 O32'
_cell_volume   563.15399598
_cell_formula_units_Z   4
loop_
 _symmetry_equiv_pos_site_id
 _symmetry_equiv_pos_as_xyz
  1  'x, y, z'
loop_
 _atom_site_type_symbol
 _atom_site_label
 _atom_site_symmetry_multiplicity
 _atom_site_fract_x
 _atom_site_fract_y
 _atom_site_fract_z
 _atom_site_occupancy
  P  P0  1  0.75000000  0.21126173  0.83229452  1
  P  P1  1  0.75000000  0.90387263  0.42506286  1
  P  P2  1  0.75000000  0.28873827  0.33229452  1
  P  P3  1  0.75000000  0.59612737  0.92506286  1
  P  P4  1  0.25000000  0.78873827  0.16770548  1
  P  P5  1  0.25000000  0.40387263  0.07493714  1
  P  P6  1  0.25000000  0.09612737  0.57493714  1
  P  P7  1  0.25000000  0.71126173  0.66770548  1
  W  W8  1  0.25000000  0.61787220  0.37435003  1
  W  W9  1  0.75000000  0.38212780  0.62564997  1
  W  W10  1  0.75000000  0.11787220  0.12564997  1
  W  W11  1  0.25000000  0.88212780  0.87435003  1
  O  O12  1  0.75000000  0.32075813  0.75372794  1
  O  O13  1  0.25000000  0.37013233  0.98783121  1
  O  O14  1  0.51499340  0.81967019  0.37591126  1
  O  O15  1  0.25000000  0.12986767  0.48783121  1
  O  O16  1  0.01104826  0.58056529  0.65624551  1
  O  O17  1  0.75000000  0.36448612  0.90394368  1
  O  O18  1  0.98895174  0.08056529  0.84375449  1
  O  O19  1  0.25000000  0.93088645  0.97515965  1
  O  O20  1  0.25000000  0.82075813  0.74627206  1
  O  O21  1  0.48500660  0.31967019  0.12408874  1
  O  O22  1  0.25000000  0.56911355  0.47515965  1
  O  O23  1  0.25000000  0.67924187  0.24627206  1
  O  O24  1  0.01499340  0.18032981  0.62408874  1
  O  O25  1  0.75000000  0.13551388  0.40394368  1
  O  O26  1  0.75000000  0.43088645  0.52484035  1
  O  O27  1  0.48895174  0.58056529  0.65624551  1
  O  O28  1  0.98500660  0.68032981  0.87591126  1
  O  O29  1  0.98500660  0.81967019  0.37591126  1
  O  O30  1  0.25000000  0.63551388  0.09605632  1
  O  O31  1  0.48500660  0.18032981  0.62408874  1
  O  O32  1  0.51104826  0.08056529  0.84375449  1
  O  O33  1  0.51104826  0.41943471  0.34375449  1
  O  O34  1  0.25000000  0.86448612  0.59605632  1
  O  O35  1  0.75000000  0.62986767  0.01216879  1
  O  O36  1  0.75000000  0.06911355  0.02484035  1
  O  O37  1  0.98895174  0.41943471  0.34375449  1
  O  O38  1  0.48895174  0.91943471  0.15624551  1
  O  O39  1  0.75000000  0.17924287  0.25372794  1
  O  O40  1  0.75000000  0.87013233  0.51216879  1
  O  O41  1  0.51499340  0.68032981  0.87591126  1
  O  O42  1  0.01499340  0.31967019  0.12408874  1
  O  O43  1  0.01104826  0.91943471  0.15624551  1
