# generated using pymatgen
data_BaVOF4
_symmetry_space_group_name_H-M   'P 1'
_cell_length_a   14.65521853
_cell_length_b   14.59190452
_cell_length_c   5.49843459
_cell_angle_alpha   79.81266842
_cell_angle_beta   78.51665345
_cell_angle_gamma   21.67067813
_symmetry_Int_Tables_number   1
_chemical_formula_structural   BaVOF4
_chemical_formula_sum   'Ba4 V4 O4 F16'
_cell_volume   425.39965004
_cell_formula_units_Z   4
loop_
 _symmetry_equiv_pos_site_id
 _symmetry_equiv_pos_as_xyz
  1  'x, y, z'
loop_
 _atom_site_type_symbol
 _atom_site_label
 _atom_site_symmetry_multiplicity
 _atom_site_fract_x
 _atom_site_fract_y
 _atom_site_fract_z
 _atom_site_occupancy
  Ba  Ba0  1  0.67981700  0.70802100  0.29652100  1
  Ba  Ba1  1  0.32497900  0.28376300  0.70056100  1
  Ba  Ba2  1  0.96124300  0.92753400  0.57432100  1
  Ba  Ba3  1  0.54912100  0.56308800  0.93073200  1
  V  V4  1  0.42129900  0.42421700  0.08493300  1
  V  V5  1  0.83359200  0.82400700  0.18002700  1
  V  V6  1  0.07980600  0.07587400  0.40798900  1
  V  V7  1  0.16842800  0.17993100  0.82211900  1
  O  O8  1  0.10569500  0.30107800  0.55733700  1
  O  O9  1  0.03919000  0.55671900  0.30289100  1
  O  O10  1  0.94967700  0.14357000  0.21720000  1
  O  O11  1  0.68299300  0.22553700  0.15184300  1
  F  F12  1  0.21571200  0.72252900  0.11062400  1
  F  F13  1  0.28881200  0.97473400  0.17091300  1
  F  F14  1  0.47274000  0.43116400  0.72259900  1
  F  F15  1  0.12964400  0.31040500  0.03304200  1
  F  F16  1  0.37188000  0.72482500  0.42932900  1
  F  F17  1  0.53540600  0.03026100  0.30402500  1
  F  F18  1  0.52069500  0.88203300  0.77610500  1
  F  F19  1  0.82241600  0.39919400  0.50182300  1
  F  F20  1  0.81245400  0.78875900  0.87539700  1
  F  F21  1  0.28154400  0.49377600  0.41291800  1
  F  F22  1  0.27699900  0.96010700  0.68210800  1
  F  F23  1  0.83667500  0.43737700  0.97230800  1
  F  F24  1  0.09056600  0.67515200  0.96606500  1
  F  F25  1  0.56604600  0.16890800  0.97675800  1
  F  F26  1  0.75947800  0.96490800  0.43624000  1
  F  F27  1  0.93725500  0.12335000  0.71322300  1
