# generated using pymatgen
data_K2TaAgS4
_symmetry_space_group_name_H-M   'P 1'
_cell_length_a   13.38673219
_cell_length_b   11.93301532
_cell_length_c   7.39871058
_cell_angle_alpha   84.17101440
_cell_angle_beta   62.47348970
_cell_angle_gamma   33.35549590
_symmetry_Int_Tables_number   1
_chemical_formula_structural   K2TaAgS4
_chemical_formula_sum   'K4 Ta2 Ag2 S8'
_cell_volume   468.03869828
_cell_formula_units_Z   2
loop_
 _symmetry_equiv_pos_site_id
 _symmetry_equiv_pos_as_xyz
  1  'x, y, z'
loop_
 _atom_site_type_symbol
 _atom_site_label
 _atom_site_symmetry_multiplicity
 _atom_site_fract_x
 _atom_site_fract_y
 _atom_site_fract_z
 _atom_site_occupancy
  K  K0  1  0.81390700  0.79911800  0.43950500  1
  K  K1  1  0.20240400  0.18879300  0.54625900  1
  K  K2  1  0.44058900  0.45210600  0.80626800  1
  K  K3  1  0.56318200  0.54596600  0.19004900  1
  Ta  Ta4  1  0.36838700  0.38278100  0.38299300  1
  Ta  Ta5  1  0.61606300  0.63397300  0.63231900  1
  Ag  Ag6  1  0.88202400  0.86737000  0.87429500  1
  Ag  Ag7  1  0.12127200  0.12795400  0.13380500  1
  S  S8  1  0.12362200  0.74060600  0.42002300  1
  S  S9  1  0.20000200  0.43295800  0.75636300  1
  S  S10  1  0.43089000  0.20019300  0.11454300  1
  S  S11  1  0.74963300  0.12018500  0.20497500  1
  S  S12  1  0.88921300  0.24469700  0.56367500  1
  S  S13  1  0.25073300  0.88452100  0.80132000  1
  S  S14  1  0.56364200  0.80242700  0.88479200  1
  S  S15  1  0.78553300  0.57920400  0.25506800  1
