# generated using pymatgen
data_Cs2Ti(Si2O5)3
_symmetry_space_group_name_H-M   'P 1'
_cell_length_a   7.49371380
_cell_length_b   7.49371377
_cell_length_c   15.18912702
_cell_angle_alpha   76.51629494
_cell_angle_beta   76.51629491
_cell_angle_gamma   59.87862249
_symmetry_Int_Tables_number   1
_chemical_formula_structural   Cs2Ti(Si2O5)3
_chemical_formula_sum   'Cs4 Ti2 Si12 O30'
_cell_volume   710.56715492
_cell_formula_units_Z   2
loop_
 _symmetry_equiv_pos_site_id
 _symmetry_equiv_pos_as_xyz
  1  'x, y, z'
loop_
 _atom_site_type_symbol
 _atom_site_label
 _atom_site_symmetry_multiplicity
 _atom_site_fract_x
 _atom_site_fract_y
 _atom_site_fract_z
 _atom_site_occupancy
  Cs  Cs0  1  0.14583786  0.41574127  0.69482917  1
  Cs  Cs1  1  0.41574127  0.14583786  0.19482917  1
  Cs  Cs2  1  0.88706796  0.62969880  0.02065183  1
  Cs  Cs3  1  0.62969880  0.88706796  0.52065183  1
  Ti  Ti4  1  0.29805300  0.77987622  0.09838212  1
  Ti  Ti5  1  0.77987622  0.29805300  0.59838212  1
  Si  Si6  1  0.40833222  0.55068153  0.46333478  1
  Si  Si7  1  0.55068153  0.40833222  0.96333478  1
  Si  Si8  1  0.98367584  0.65235686  0.25906386  1
  Si  Si9  1  0.65235686  0.98367584  0.75906386  1
  Si  Si10  1  0.13965029  0.36779058  0.44692252  1
  Si  Si11  1  0.36779058  0.13965029  0.94692252  1
  Si  Si12  1  0.63402717  0.53351661  0.25851003  1
  Si  Si13  1  0.53351661  0.63402717  0.75851003  1
  Si  Si14  1  0.02164168  0.07792756  0.93494990  1
  Si  Si15  1  0.07792756  0.02164168  0.43494990  1
  Si  Si16  1  0.92852072  0.07024558  0.24818322  1
  Si  Si17  1  0.07024558  0.92852072  0.74818322  1
  O  O18  1  0.43392320  0.94730893  0.02626401  1
  O  O19  1  0.94730893  0.43392320  0.52626401  1
  O  O20  1  0.47468731  0.69905258  0.19084249  1
  O  O21  1  0.69905258  0.47468731  0.69084249  1
  O  O22  1  0.08511286  0.03238625  0.15529772  1
  O  O23  1  0.03238625  0.08511286  0.65529772  1
  O  O24  1  0.50351863  0.53452302  0.04380195  1
  O  O25  1  0.53452302  0.50351863  0.54380195  1
  O  O26  1  0.19848501  0.77436448  0.46996284  1
  O  O27  1  0.77436448  0.19848501  0.96996384  1
  O  O28  1  0.15578063  0.62766593  0.17185541  1
  O  O29  1  0.62766593  0.15578063  0.67185541  1
  O  O30  1  0.84476859  0.89600630  0.27704352  1
  O  O31  1  0.89600630  0.84476859  0.77704352  1
  O  O32  1  0.33395702  0.37452885  0.47393436  1
  O  O33  1  0.37452885  0.33395702  0.97393436  1
  O  O34  1  0.08633112  0.51617878  0.35032914  1
  O  O35  1  0.51617878  0.08633112  0.85032914  1
  O  O36  1  0.13191285  0.86447060  -0.00029814  1
  O  O37  1  0.86447060  0.13191285  0.49970186  1
  O  O38  1  0.29446388  0.71788664  0.74292231  1
  O  O39  1  0.71788664  0.29446388  0.24292231  1
  O  O40  1  0.56142521  0.54016398  0.86400436  1
  O  O41  1  0.54016398  0.56142521  0.36400436  1
  O  O42  1  0.05367077  0.04440587  0.82965989  1
  O  O43  1  0.04440587  0.05367077  0.32965989  1
  O  O44  1  0.22733064  0.12714696  0.43034447  1
  O  O45  1  0.12714696  0.22733064  0.93034447  1
  O  O46  1  0.57192655  0.83593882  0.73864924  1
  O  O47  1  0.83593882  0.57192655  0.23864924  1
