# generated using pymatgen
data_CdI2
_symmetry_space_group_name_H-M   'P 1'
_cell_length_a   4.28160849
_cell_length_b   4.28160901
_cell_length_c   71.60467017
_cell_angle_alpha   90.00000000
_cell_angle_beta   90.00000000
_cell_angle_gamma   120.00000392
_symmetry_Int_Tables_number   1
_chemical_formula_structural   CdI2
_chemical_formula_sum   'Cd10 I20'
_cell_volume   1136.80486025
_cell_formula_units_Z   10
loop_
 _symmetry_equiv_pos_site_id
 _symmetry_equiv_pos_as_xyz
  1  'x, y, z'
loop_
 _atom_site_type_symbol
 _atom_site_label
 _atom_site_symmetry_multiplicity
 _atom_site_fract_x
 _atom_site_fract_y
 _atom_site_fract_z
 _atom_site_occupancy
  Cd  Cd0  1  0.66666700  0.33333300  0.52499996  1
  Cd  Cd1  1  0.66666700  0.33333300  0.22500363  1
  Cd  Cd2  1  0.66666700  0.33333300  0.72499531  1
  Cd  Cd3  1  0.00000000  -0.00000000  0.82499821  1
  Cd  Cd4  1  0.66666700  0.33333300  0.42500140  1
  Cd  Cd5  1  0.00000000  -0.00000000  0.92499832  1
  Cd  Cd6  1  0.66666700  0.33333300  0.02500514  1
  Cd  Cd7  1  0.00000000  -0.00000000  0.32499456  1
  Cd  Cd8  1  0.00000000  -0.00000000  0.12499135  1
  Cd  Cd9  1  0.00000000  -0.00000000  0.62500787  1
  I  I10  1  -0.00000000  -0.00000000  0.20093098  1
  I  I11  1  0.33333300  0.66666700  0.44906901  1
  I  I12  1  0.33333300  0.66666700  0.94906903  1
  I  I13  1  0.66666700  0.33333300  0.10093097  1
  I  I14  1  0.66666700  0.33333300  0.90093122  1
  I  I15  1  0.33333300  0.66666700  0.34906901  1
  I  I16  1  -0.00000000  -0.00000000  0.40093098  1
  I  I17  1  0.33333300  0.66666700  0.04906902  1
  I  I18  1  0.66666700  0.33333300  0.30093098  1
  I  I19  1  0.33333300  0.66666700  0.54906903  1
  I  I20  1  0.66666700  0.33333300  0.60093098  1
  I  I21  1  0.33333300  0.66666700  0.14906901  1
  I  I22  1  0.33333300  0.66666700  0.24906902  1
  I  I23  1  0.00000000  -0.00000000  0.00093099  1
  I  I24  1  -0.00000000  -0.00000000  0.70093097  1
  I  I25  1  0.33333300  0.66666700  0.84906903  1
  I  I26  1  0.33333300  0.66666700  0.64906902  1
  I  I27  1  0.66666700  0.33333300  0.80093099  1
  I  I28  1  0.33333300  0.66666700  0.74906902  1
  I  I29  1  0.00000000  -0.00000000  0.50093098  1
