# generated using pymatgen
data_In2Se3
_symmetry_space_group_name_H-M   'P 1'
_cell_length_a   7.27357115
_cell_length_b   7.27357063
_cell_length_c   19.54254000
_cell_angle_alpha   90.00000000
_cell_angle_beta   90.00000000
_cell_angle_gamma   119.99999666
_symmetry_Int_Tables_number   1
_chemical_formula_structural   In2Se3
_chemical_formula_sum   'In12 Se18'
_cell_volume   895.37921357
_cell_formula_units_Z   6
loop_
 _symmetry_equiv_pos_site_id
 _symmetry_equiv_pos_as_xyz
  1  'x, y, z'
loop_
 _atom_site_type_symbol
 _atom_site_label
 _atom_site_symmetry_multiplicity
 _atom_site_fract_x
 _atom_site_fract_y
 _atom_site_fract_z
 _atom_site_occupancy
  In  In0  1  0.32952869  0.98666816  0.00041050  1
  In  In1  1  0.01333184  0.34286153  0.33374450  1
  In  In2  1  0.00819273  0.69670916  0.47191797  1
  In  In3  1  0.99180727  0.30329084  0.97191797  1
  In  In4  1  0.98666816  0.65713847  0.83374450  1
  In  In5  1  0.34286153  0.32952869  0.16707750  1
  In  In6  1  0.65713847  0.67047131  0.66707750  1
  In  In7  1  0.67047131  0.01333184  0.50041050  1
  In  In8  1  0.31148457  0.00819273  0.63858497  1
  In  In9  1  0.30329084  0.31148457  0.80525197  1
  In  In10  1  0.68851543  0.99180727  0.13858497  1
  In  In11  1  0.69670916  0.68851543  0.30525197  1
  Se  Se12  1  0.69011694  0.03429216  0.63546099  1
  Se  Se13  1  0.63774322  0.66767718  0.45349885  1
  Se  Se14  1  0.93305244  0.27813196  0.82662768  1
  Se  Se15  1  0.97006704  0.63774322  0.62016585  1
  Se  Se16  1  0.34417422  0.30988306  0.30212799  1
  Se  Se17  1  0.06694756  0.72186804  0.32662768  1
  Se  Se18  1  0.96570784  0.65582578  0.96879399  1
  Se  Se19  1  0.66767718  0.02993296  0.28683285  1
  Se  Se20  1  0.30988306  0.96570784  0.13546099  1
  Se  Se21  1  0.27813196  0.34507952  0.65996068  1
  Se  Se22  1  0.65492048  0.93305244  0.99329368  1
  Se  Se23  1  0.34507952  0.06694756  0.49329368  1
  Se  Se24  1  0.65582578  0.69011694  0.80212799  1
  Se  Se25  1  0.33232282  0.97006704  0.78683285  1
  Se  Se26  1  0.72186804  0.65492048  0.15996068  1
  Se  Se27  1  0.36225678  0.33232282  0.95349885  1
  Se  Se28  1  0.02993296  0.36225678  0.12016585  1
  Se  Se29  1  0.03429216  0.34417422  0.46879399  1
