# generated using pymatgen
data_InF3
_symmetry_space_group_name_H-M   'P 1'
_cell_length_a   5.75428515
_cell_length_b   5.75428595
_cell_length_c   5.75428503
_cell_angle_alpha   53.77103332
_cell_angle_beta   53.77102451
_cell_angle_gamma   53.77103159
_symmetry_Int_Tables_number   1
_chemical_formula_structural   InF3
_chemical_formula_sum   'In2 F6'
_cell_volume   115.11001892
_cell_formula_units_Z   2
loop_
 _symmetry_equiv_pos_site_id
 _symmetry_equiv_pos_as_xyz
  1  'x, y, z'
loop_
 _atom_site_type_symbol
 _atom_site_label
 _atom_site_symmetry_multiplicity
 _atom_site_fract_x
 _atom_site_fract_y
 _atom_site_fract_z
 _atom_site_occupancy
  In  In0  1  0.50000000  0.50000000  0.50000000  1
  In  In1  1  0.00000000  -0.00000000  0.00000000  1
  F  F2  1  0.39570922  0.75000000  0.10429078  1
  F  F3  1  0.75000000  0.10429078  0.39570922  1
  F  F4  1  0.89570922  0.60429078  0.25000000  1
  F  F5  1  0.25000000  0.89570922  0.60429078  1
  F  F6  1  0.60429078  0.25000000  0.89570922  1
  F  F7  1  0.10429078  0.39570922  0.75000000  1
