# generated using pymatgen
data_Co(Bi3O5)4
_symmetry_space_group_name_H-M   'P 1'
_cell_length_a   8.78629267
_cell_length_b   8.78625607
_cell_length_c   8.78630516
_cell_angle_alpha   109.47125727
_cell_angle_beta   109.47136900
_cell_angle_gamma   109.47120290
_symmetry_Int_Tables_number   1
_chemical_formula_structural   Co(Bi3O5)4
_chemical_formula_sum   'Co1 Bi12 O20'
_cell_volume   522.14727703
_cell_formula_units_Z   1
loop_
 _symmetry_equiv_pos_site_id
 _symmetry_equiv_pos_as_xyz
  1  'x, y, z'
loop_
 _atom_site_type_symbol
 _atom_site_label
 _atom_site_symmetry_multiplicity
 _atom_site_fract_x
 _atom_site_fract_y
 _atom_site_fract_z
 _atom_site_occupancy
  Co  Co0  1  0.00000910  0.99999509  0.00002023  1
  Bi  Bi1  1  0.85738359  0.69626340  0.19115914  1
  Bi  Bi2  1  0.33377886  0.83888361  0.14261969  1
  Bi  Bi3  1  0.49489674  0.30373787  0.16112283  1
  Bi  Bi4  1  0.83887900  0.14261522  0.33377814  1
  Bi  Bi5  1  0.66622705  0.80883958  0.50510393  1
  Bi  Bi6  1  0.16112133  0.49489299  0.30373430  1
  Bi  Bi7  1  0.80884256  0.50510746  0.66622879  1
  Bi  Bi8  1  0.30373836  0.16111688  0.49489413  1
  Bi  Bi9  1  0.19116250  0.85738528  0.69626192  1
  Bi  Bi10  1  0.50510520  0.66622831  0.80884144  1
  Bi  Bi11  1  0.69626415  0.19115959  0.85738781  1
  Bi  Bi12  1  0.14261698  0.33377440  0.83888141  1
  O  O13  1  -0.00000023  0.00000124  0.39325421  1
  O  O14  1  0.12072653  0.74112150  0.35695427  1
  O  O15  1  0.62039734  0.87927482  0.23622686  1
  O  O16  1  0.25887851  0.37960793  0.61583276  1
  O  O17  1  0.99999777  0.00000163  0.79450620  1
  O  O18  1  0.87927490  0.23623098  0.62039620  1
  O  O19  1  0.35695419  0.12072639  0.74112191  1
  O  O20  1  0.76377249  0.64304557  0.38416959  1
  O  O21  1  0.99999022  0.79450669  0.99999067  1
  O  O22  1  0.20547884  0.20548878  0.20547801  1
  O  O23  1  0.79450685  0.99999887  0.99999779  1
  O  O24  1  -0.00000139  0.39325709  -0.00000208  1
  O  O25  1  0.60674163  0.60674334  0.60674181  1
  O  O26  1  0.39325494  -0.00000056  -0.00000089  1
  O  O27  1  0.23622744  0.62039352  0.87927159  1
  O  O28  1  0.37960644  0.61583208  0.25887522  1
  O  O29  1  0.38416932  0.76377322  0.64304489  1
  O  O30  1  0.64304457  0.38416816  0.76377445  1
  O  O31  1  0.74112408  0.35695456  0.12072800  1
  O  O32  1  0.61583013  0.25887452  0.37960578  1
