# generated using pymatgen
data_Gd2Ti2O7
_symmetry_space_group_name_H-M   'P 1'
_cell_length_a   7.27369526
_cell_length_b   7.27369557
_cell_length_c   29.05051891
_cell_angle_alpha   59.50497918
_cell_angle_beta   59.50497760
_cell_angle_gamma   59.63461755
_symmetry_Int_Tables_number   1
_chemical_formula_structural   Gd2Ti2O7
_chemical_formula_sum   'Gd16 Ti16 O56'
_cell_volume   1075.63104143
_cell_formula_units_Z   8
loop_
 _symmetry_equiv_pos_site_id
 _symmetry_equiv_pos_as_xyz
  1  'x, y, z'
loop_
 _atom_site_type_symbol
 _atom_site_label
 _atom_site_symmetry_multiplicity
 _atom_site_fract_x
 _atom_site_fract_y
 _atom_site_fract_z
 _atom_site_occupancy
  Gd  Gd0  1  0.50097700  0.99879600  0.99967700  1
  Gd  Gd1  1  0.47629400  0.47629400  0.01352600  1
  Gd  Gd2  1  0.49893900  0.00070400  0.25020000  1
  Gd  Gd3  1  0.99881600  0.99881600  0.12501400  1
  Gd  Gd4  1  0.52363400  0.52363400  0.23632200  1
  Gd  Gd5  1  0.99879600  0.50097700  0.99967700  1
  Gd  Gd6  1  0.50107200  0.00074800  0.49807600  1
  Gd  Gd7  1  0.00572300  0.00572300  0.37503700  1
  Gd  Gd8  1  0.00070400  0.49893900  0.25020000  1
  Gd  Gd9  1  0.99436300  0.99436300  0.50330400  1
  Gd  Gd10  1  0.49889600  0.99931000  0.75194800  1
  Gd  Gd11  1  0.99944800  0.99944800  0.62497300  1
  Gd  Gd12  1  0.00074800  0.50107200  0.49807600  1
  Gd  Gd13  1  0.00789100  0.00789100  0.74563700  1
  Gd  Gd14  1  0.99379800  0.99379800  0.87534700  1
  Gd  Gd15  1  0.99931000  0.49889600  0.75194800  1
  Ti  Ti16  1  0.01897900  0.01897900  0.98869300  1
  Ti  Ti17  1  0.50204100  0.00022300  0.12398500  1
  Ti  Ti18  1  0.49906000  0.49906000  0.12517700  1
  Ti  Ti19  1  0.50612800  0.00214600  0.37133200  1
  Ti  Ti20  1  0.98753300  0.98753300  0.25889900  1
  Ti  Ti21  1  0.00022300  0.50204100  0.12398500  1
  Ti  Ti22  1  0.49776400  0.49776400  0.37516200  1
  Ti  Ti23  1  0.50063700  0.00118600  0.62439400  1
  Ti  Ti24  1  0.50560100  0.50560100  0.49786700  1
  Ti  Ti25  1  0.50013200  0.50013200  0.62490100  1
  Ti  Ti26  1  0.00214600  0.50612800  0.37133200  1
  Ti  Ti27  1  0.49752300  0.49752300  0.75078100  1
  Ti  Ti28  1  0.49549400  0.99931500  0.87772500  1
  Ti  Ti29  1  0.00118600  0.50063700  0.62439400  1
  Ti  Ti30  1  0.50226200  0.50226200  0.87478500  1
  Ti  Ti31  1  0.99931500  0.49549400  0.87772500  1
  O  O32  1  0.10748000  0.10748000  0.02974100  1
  O  O33  1  0.26144500  0.26144500  0.09768900  1
  O  O34  1  0.07448500  0.69352200  0.04341900  1
  O  O35  1  0.17407000  0.59691400  0.13709200  1
  O  O36  1  0.10795500  0.10795500  0.28365800  1
  O  O37  1  0.69352200  0.07448500  0.04341900  1
  O  O38  1  0.60692500  0.60692500  0.04160300  1
  O  O39  1  0.59691400  0.17407000  0.13709200  1
  O  O40  1  0.13916800  0.61327600  0.29017400  1
  O  O41  1  0.19062300  0.19062300  0.38778300  1
  O  O42  1  0.40190300  0.82617700  0.11310100  1
  O  O43  1  0.39269700  0.39269700  0.20847900  1
  O  O44  1  0.17818300  0.57295700  0.39409100  1
  O  O45  1  0.30480500  0.92526400  0.20703200  1
  O  O46  1  0.82617700  0.40190300  0.11310100  1
  O  O47  1  0.12613600  0.12613600  0.53060700  1
  O  O48  1  0.61327600  0.13916800  0.29017400  1
  O  O49  1  0.59904200  0.59904200  0.28895600  1
  O  O50  1  0.73971800  0.73971800  0.15240800  1
  O  O51  1  0.92526400  0.30480500  0.20703200  1
  O  O52  1  0.57295700  0.17818300  0.39409100  1
  O  O53  1  0.17107700  0.17107700  0.64480200  1
  O  O54  1  0.17255100  0.57893700  0.54309700  1
  O  O55  1  0.41293100  0.83344300  0.35675100  1
  O  O56  1  0.42564600  0.42564600  0.45623200  1
  O  O57  1  0.17208300  0.57776200  0.64409900  1
  O  O58  1  0.12384700  0.12384700  0.78064900  1
  O  O59  1  0.42467000  0.82856500  0.45599200  1
  O  O60  1  0.83344300  0.41293100  0.35675100  1
  O  O61  1  0.89204200  0.89204200  0.22020200  1
  O  O62  1  0.57893700  0.17255100  0.54309700  1
  O  O63  1  0.58081500  0.58081500  0.54225400  1
  O  O64  1  0.82856500  0.42467000  0.45599200  1
  O  O65  1  0.83962400  0.83962400  0.35342200  1
  O  O66  1  0.57776200  0.17208300  0.64409900  1
  O  O67  1  0.15864000  0.15864000  0.89771700  1
  O  O68  1  0.17101000  0.57352500  0.79482500  1
  O  O69  1  0.41901100  0.41901100  0.70801700  1
  O  O70  1  0.42204500  0.82687500  0.60622800  1
  O  O71  1  0.82687500  0.42204500  0.60622800  1
  O  O72  1  0.87581300  0.87581300  0.46953800  1
  O  O73  1  0.16657700  0.58678700  0.89330300  1
  O  O74  1  0.41999700  0.82683200  0.70721200  1
  O  O75  1  0.57352500  0.17101000  0.79482500  1
  O  O76  1  0.57492200  0.57492200  0.79388500  1
  O  O77  1  0.82902700  0.82902700  0.60511500  1
  O  O78  1  0.82683200  0.41999700  0.70721200  1
  O  O79  1  0.58678700  0.16657700  0.89330300  1
  O  O80  1  0.40047400  0.40047400  0.96114900  1
  O  O81  1  0.42621300  0.82149600  0.85632200  1
  O  O82  1  0.82149600  0.42621300  0.85632200  1
  O  O83  1  0.87382500  0.87382500  0.71962500  1
  O  O84  1  0.38290100  0.86287400  0.96033600  1
  O  O85  1  0.80683400  0.80683400  0.86365400  1
  O  O86  1  0.86287400  0.38290100  0.96033600  1
  O  O87  1  0.89215200  0.89215200  0.96656400  1
