# generated using pymatgen
data_Mg11AlFeSi11O36
_symmetry_space_group_name_H-M   'P 1'
_cell_length_a   4.95098107
_cell_length_b   6.92278003
_cell_length_c   14.33923159
_cell_angle_alpha   90.00221680
_cell_angle_beta   90.08483525
_cell_angle_gamma   90.10637800
_symmetry_Int_Tables_number   1
_chemical_formula_structural   Mg11AlFeSi11O36
_chemical_formula_sum   'Mg11 Al1 Fe1 Si11 O36'
_cell_volume   491.46936558
_cell_formula_units_Z   1
loop_
 _symmetry_equiv_pos_site_id
 _symmetry_equiv_pos_as_xyz
  1  'x, y, z'
loop_
 _atom_site_type_symbol
 _atom_site_label
 _atom_site_symmetry_multiplicity
 _atom_site_fract_x
 _atom_site_fract_y
 _atom_site_fract_z
 _atom_site_occupancy
  Mg  Mg0  1  0.05741423  0.74404620  0.99640915  1
  Mg  Mg1  1  0.55668698  0.74801883  0.83678009  1
  Mg  Mg2  1  0.44417637  0.25281858  0.82763031  1
  Mg  Mg3  1  0.94224784  0.24900840  0.67202043  1
  Mg  Mg4  1  0.05869197  0.75007521  0.65982311  1
  Mg  Mg5  1  0.55750910  0.75040366  0.50575839  1
  Mg  Mg6  1  0.44231177  0.24989398  0.49437526  1
  Mg  Mg7  1  0.94120335  0.24996685  0.34009324  1
  Mg  Mg8  1  0.05639972  0.75168109  0.32921963  1
  Mg  Mg9  1  0.55627216  0.74829402  0.17247450  1
  Mg  Mg10  1  0.44037478  0.25136759  0.16259540  1
  Al  Al11  1  0.49893051  0.50333800  0.99886506  1
  Fe  Fe12  1  0.93346252  0.25716957  0.00567376  1
  Si  Si13  1  0.00190716  0.99552843  0.83298928  1
  Si  Si14  1  0.00576439  0.50555829  0.83162087  1
  Si  Si15  1  0.50120573  0.49910485  0.66600555  1
  Si  Si16  1  0.50049059  0.00058331  0.66681726  1
  Si  Si17  1  0.99980358  0.50000089  0.50010182  1
  Si  Si18  1  0.99977484  0.00024081  0.50021045  1
  Si  Si19  1  0.49907364  0.50029994  0.33406342  1
  Si  Si20  1  0.49969462  0.00039202  0.33346290  1
  Si  Si21  1  0.99882101  0.00120976  0.16807569  1
  Si  Si22  1  0.99595587  0.49803032  0.16931904  1
  Si  Si23  1  0.49953118  0.99656417  0.99818210  1
  O  O24  1  0.54038320  0.23835225  0.96429049  1
  O  O25  1  0.80174457  0.94001231  0.93402789  1
  O  O26  1  0.81518402  0.54755174  0.93223110  1
  O  O27  1  0.29974073  0.55221518  0.89257079  1
  O  O28  1  0.29785357  0.94269295  0.89787322  1
  O  O29  1  0.03467363  0.24575583  0.87006197  1
  O  O30  1  0.96321200  0.75132887  0.79564536  1
  O  O31  1  0.70587948  0.44579623  0.76631447  1
  O  O32  1  0.70291873  0.05423236  0.76776977  1
  O  O33  1  0.20202990  0.44414335  0.73062541  1
  O  O34  1  0.20320806  0.05468004  0.73255991  1
  O  O35  1  0.46505497  0.74981987  0.70022454  1
  O  O36  1  0.53504737  0.24966395  0.63147020  1
  O  O37  1  0.79809236  0.55385184  0.60041432  1
  O  O38  1  0.79825426  0.94703267  0.60105419  1
  O  O39  1  0.29838353  0.55330922  0.56512120  1
  O  O40  1  0.29775614  0.94697561  0.56559083  1
  O  O41  1  0.03431277  0.24992530  0.53426846  1
  O  O42  1  0.96529903  0.75034303  0.46583325  1
  O  O43  1  0.70179242  0.05338375  0.43451790  1
  O  O44  1  0.70134904  0.44671733  0.43477130  1
  O  O45  1  0.20125441  0.05276643  0.39874949  1
  O  O46  1  0.20128749  0.44681975  0.39917421  1
  O  O47  1  0.46452959  0.75048161  0.36813554  1
  O  O48  1  0.53440136  0.25038412  0.29966588  1
  O  O49  1  0.79767595  0.55472088  0.26949282  1
  O  O50  1  0.79625469  0.94672480  0.26799870  1
  O  O51  1  0.29748466  0.55316798  0.23272655  1
  O  O52  1  0.29987012  0.94741120  0.23148240  1
  O  O53  1  0.03625440  0.24843227  0.20474955  1
  O  O54  1  0.96335270  0.75305542  0.13342518  1
  O  O55  1  0.70741711  0.06106739  0.10000312  1
  O  O56  1  0.70551660  0.44338746  0.10507927  1
  O  O57  1  0.18643682  0.44600466  0.06794386  1
  O  O58  1  0.19707752  0.06247516  0.06506134  1
  O  O59  1  0.46131390  0.76172239  0.03650782  1
