# generated using pymatgen
data_KICl2
_symmetry_space_group_name_H-M   'P 1'
_cell_length_a   11.09240663
_cell_length_b   8.47437059
_cell_length_c   12.20119152
_cell_angle_alpha   72.29498981
_cell_angle_beta   90.00000000
_cell_angle_gamma   90.00000000
_symmetry_Int_Tables_number   1
_chemical_formula_structural   KICl2
_chemical_formula_sum   'K8 I8 Cl16'
_cell_volume   1092.60192671
_cell_formula_units_Z   8
loop_
 _symmetry_equiv_pos_site_id
 _symmetry_equiv_pos_as_xyz
  1  'x, y, z'
loop_
 _atom_site_type_symbol
 _atom_site_label
 _atom_site_symmetry_multiplicity
 _atom_site_fract_x
 _atom_site_fract_y
 _atom_site_fract_z
 _atom_site_occupancy
  K  K0  1  0.69960215  0.96896108  0.41218658  1
  K  K1  1  0.05288652  0.45978627  0.30870373  1
  K  K2  1  0.19960215  0.03103892  0.08781342  1
  K  K3  1  0.44711348  0.45978627  0.80870373  1
  K  K4  1  0.30039785  0.03103892  0.58781342  1
  K  K5  1  0.94711348  0.54021373  0.69129627  1
  K  K6  1  0.80039785  0.96896108  0.91218658  1
  K  K7  1  0.55288652  0.54021373  0.19129627  1
  I  I8  1  0.09996833  0.71569736  0.91756143  1
  I  I9  1  0.51767256  0.13057733  0.11583296  1
  I  I10  1  0.98232744  0.13057733  0.61583296  1
  I  I11  1  0.59996833  0.28430264  0.58243857  1
  I  I12  1  0.48232744  0.86942267  0.88416704  1
  I  I13  1  0.40003167  0.71569736  0.41756143  1
  I  I14  1  0.90003167  0.28430264  0.08243857  1
  I  I15  1  0.01767256  0.86942267  0.38416704  1
  Cl  Cl16  1  0.20254973  0.67573958  0.73874827  1
  Cl  Cl17  1  0.67361906  0.89619414  0.16621503  1
  Cl  Cl18  1  0.79745027  0.32426042  0.26125173  1
  Cl  Cl19  1  0.35864951  0.36264716  0.06726380  1
  Cl  Cl20  1  0.14135049  0.36264716  0.56726380  1
  Cl  Cl21  1  0.49077769  0.23680148  0.40979049  1
  Cl  Cl22  1  0.85864951  0.63735284  0.43273620  1
  Cl  Cl23  1  0.70254973  0.32426042  0.76125173  1
  Cl  Cl24  1  0.50922231  0.76319852  0.59020951  1
  Cl  Cl25  1  0.29745027  0.67573958  0.23874827  1
  Cl  Cl26  1  0.00922231  0.23680148  0.90979049  1
  Cl  Cl27  1  0.99077769  0.76319852  0.09020951  1
  Cl  Cl28  1  0.64135049  0.63735284  0.93273620  1
  Cl  Cl29  1  0.32638094  0.10380586  0.83378497  1
  Cl  Cl30  1  0.17361906  0.10380586  0.33378497  1
  Cl  Cl31  1  0.82638094  0.89619414  0.66621503  1
