# generated using pymatgen
data_Ba3Nb6(Si2O13)2
_symmetry_space_group_name_H-M   'P 1'
_cell_length_a   9.10115071
_cell_length_b   9.10115071
_cell_length_c   7.77703653
_cell_angle_alpha   90.00000000
_cell_angle_beta   90.00000000
_cell_angle_gamma   119.99999978
_symmetry_Int_Tables_number   1
_chemical_formula_structural   Ba3Nb6(Si2O13)2
_chemical_formula_sum   'Ba3 Nb6 Si4 O26'
_cell_volume   557.87562163
_cell_formula_units_Z   1
loop_
 _symmetry_equiv_pos_site_id
 _symmetry_equiv_pos_as_xyz
  1  'x, y, z'
loop_
 _atom_site_type_symbol
 _atom_site_label
 _atom_site_symmetry_multiplicity
 _atom_site_fract_x
 _atom_site_fract_y
 _atom_site_fract_z
 _atom_site_occupancy
  Ba  Ba0  1  -0.00000000  0.60184928  0.50000000  1
  Ba  Ba1  1  0.39815072  0.39815072  0.50000000  1
  Ba  Ba2  1  0.60184928  -0.00000000  0.50000000  1
  Nb  Nb3  1  0.23899214  0.00000000  0.75674782  1
  Nb  Nb4  1  0.76100786  0.76100786  0.24325218  1
  Nb  Nb5  1  0.00000000  0.23899214  0.24325218  1
  Nb  Nb6  1  0.00000000  0.23899214  0.75674782  1
  Nb  Nb7  1  0.76100786  0.76100786  0.75674782  1
  Nb  Nb8  1  0.23899214  0.00000000  0.24325218  1
  Si  Si9  1  0.66666700  0.33333300  0.20634109  1
  Si  Si10  1  0.66666700  0.33333300  0.79365891  1
  Si  Si11  1  0.33333300  0.66666700  0.79365891  1
  Si  Si12  1  0.33333300  0.66666700  0.20634109  1
  O  O13  1  1.00000000  0.22637445  0.50000000  1
  O  O14  1  0.77362555  0.77362555  0.50000000  1
  O  O15  1  0.22637445  1.00000000  0.50000000  1
  O  O16  1  0.51071756  0.69465890  0.28541546  1
  O  O17  1  0.30534110  0.81605866  0.28541546  1
  O  O18  1  0.18394134  0.48928244  0.28541546  1
  O  O19  1  0.48928244  0.18394134  0.71458454  1
  O  O20  1  0.18394134  0.48928244  0.71458454  1
  O  O21  1  0.51071756  0.69465890  0.71458454  1
  O  O22  1  0.30534110  0.81605866  0.71458454  1
  O  O23  1  0.69465890  0.51071756  0.28541546  1
  O  O24  1  0.81605866  0.30534110  0.28541546  1
  O  O25  1  0.81605866  0.30534110  0.71458454  1
  O  O26  1  0.33333300  0.66666700  -0.00000000  1
  O  O27  1  0.66666700  0.33333300  -0.00000000  1
  O  O28  1  0.28637877  0.00000000  -0.00000000  1
  O  O29  1  0.71362123  0.71362123  -0.00000000  1
  O  O30  1  0.00000000  0.28637877  -0.00000000  1
  O  O31  1  0.82165190  1.00000000  0.22945595  1
  O  O32  1  0.17834810  0.17834810  0.77054405  1
  O  O33  1  1.00000000  0.82165190  0.77054405  1
  O  O34  1  1.00000000  0.82165190  0.22945595  1
  O  O35  1  0.17834810  0.17834810  0.22945595  1
  O  O36  1  0.82165190  1.00000000  0.77054405  1
  O  O37  1  0.48928244  0.18394134  0.28541546  1
  O  O38  1  0.69465890  0.51071756  0.71458454  1
