# generated using pymatgen
data_Al2NiCl8
_symmetry_space_group_name_H-M   'P 1'
_cell_length_a   9.37725905
_cell_length_b   9.37725905
_cell_length_c   11.49299555
_cell_angle_alpha   54.05767651
_cell_angle_beta   54.05767651
_cell_angle_gamma   49.46396189
_symmetry_Int_Tables_number   1
_chemical_formula_structural   Al2NiCl8
_chemical_formula_sum   'Al4 Ni2 Cl16'
_cell_volume   586.13049977
_cell_formula_units_Z   2
loop_
 _symmetry_equiv_pos_site_id
 _symmetry_equiv_pos_as_xyz
  1  'x, y, z'
loop_
 _atom_site_type_symbol
 _atom_site_label
 _atom_site_symmetry_multiplicity
 _atom_site_fract_x
 _atom_site_fract_y
 _atom_site_fract_z
 _atom_site_occupancy
  Al  Al0  1  0.32748623  0.83975074  0.96857249  1
  Al  Al1  1  0.83975074  0.32748623  0.46857249  1
  Al  Al2  1  0.16024926  0.67251377  0.53142751  1
  Al  Al3  1  0.67251377  0.16024926  0.03142751  1
  Ni  Ni4  1  0.00378275  0.99621725  0.25000000  1
  Ni  Ni5  1  0.99621725  0.00378275  0.75000000  1
  Cl  Cl6  1  0.31457741  0.37209104  0.55493910  1
  Cl  Cl7  1  0.69338105  0.14186677  0.21835566  1
  Cl  Cl8  1  0.15047647  0.71003779  0.18904886  1
  Cl  Cl9  1  0.13214725  0.16885105  0.48498877  1
  Cl  Cl10  1  0.84952353  0.28996221  0.81095114  1
  Cl  Cl11  1  0.83114895  0.86785275  0.01501123  1
  Cl  Cl12  1  0.86785275  0.83114895  0.51501123  1
  Cl  Cl13  1  0.71003779  0.15047647  0.68904886  1
  Cl  Cl14  1  0.16885105  0.13214725  0.98498877  1
  Cl  Cl15  1  0.62790896  0.68542259  0.94506090  1
  Cl  Cl16  1  0.14186677  0.69338105  0.71835566  1
  Cl  Cl17  1  0.85813323  0.30661895  0.28164434  1
  Cl  Cl18  1  0.37209104  0.31457741  0.05493910  1
  Cl  Cl19  1  0.28996221  0.84952353  0.31095114  1
  Cl  Cl20  1  0.68542259  0.62790896  0.44506090  1
  Cl  Cl21  1  0.30661895  0.85813323  0.78164434  1
