# generated using pymatgen
data_LiB13C2
_symmetry_space_group_name_H-M   'P 1'
_cell_length_a   7.30353285
_cell_length_b   7.30366624
_cell_length_c   7.30363529
_cell_angle_alpha   134.36234715
_cell_angle_beta   113.32148354
_cell_angle_gamma   84.54406027
_symmetry_Int_Tables_number   1
_chemical_formula_structural   LiB13C2
_chemical_formula_sum   'Li2 B26 C4'
_cell_volume   245.78338141
_cell_formula_units_Z   2
loop_
 _symmetry_equiv_pos_site_id
 _symmetry_equiv_pos_as_xyz
  1  'x, y, z'
loop_
 _atom_site_type_symbol
 _atom_site_label
 _atom_site_symmetry_multiplicity
 _atom_site_fract_x
 _atom_site_fract_y
 _atom_site_fract_z
 _atom_site_occupancy
  Li  Li0  1  0.20280107  0.50003037  0.70289609  1
  Li  Li1  1  0.30735903  0.00026186  0.30758743  1
  B  B2  1  0.40893141  0.41665960  0.99225494  1
  B  B3  1  0.37782851  0.57489687  0.30926270  1
  B  B4  1  0.73436628  0.93141290  0.30922329  1
  B  B5  1  0.13133480  0.92501826  0.69992305  1
  B  B6  1  0.98282319  0.65853229  0.00359234  1
  B  B7  1  0.34504055  0.02074603  0.00354839  1
  B  B8  1  0.13133261  0.43139160  0.20629507  1
  B  B9  1  0.73436801  0.42512432  0.80293572  1
  B  B10  1  0.16413973  0.15845024  0.68492888  1
  B  B11  1  0.10026226  0.08327826  0.01696166  1
  B  B12  1  0.00343402  0.17606165  0.82735234  1
  B  B13  1  0.34503978  0.34147586  0.32427342  1
  B  B14  1  0.77489616  0.56861561  0.69994781  1
  B  B15  1  0.57557549  0.58331447  0.99224590  1
  B  B16  1  0.37782978  0.06854619  0.80291066  1
  B  B17  1  0.86910205  0.49996493  0.36911231  1
  B  B18  1  0.52645075  0.52081640  0.68492994  1
  B  B19  1  0.93369548  0.91670622  0.01696383  1
  B  B20  1  0.85795589  0.67608061  0.18185551  1
  B  B21  1  0.16413984  0.47919086  0.00567229  1
  B  B22  1  0.98281598  0.97920873  0.32426659  1
  B  B23  1  0.65128832  0.82393476  0.82732999  1
  B  B24  1  0.77489200  0.07492416  0.20625487  1
  B  B25  1  0.50574163  0.32387702  0.18184170  1
  B  B26  1  0.64019464  0.00000790  0.64015693  1
  B  B27  1  0.52645168  0.84150433  0.00561627  1
  C  C28  1  0.50361704  0.86944264  0.63414947  1
  C  C29  1  0.76475899  0.13060360  0.63413848  1
  C  C30  1  0.74440277  0.36938918  0.37498904  1
  C  C31  1  0.00553926  0.63053327  0.37499008  1
