# generated using pymatgen
data_Rb2V(PO4)2
_symmetry_space_group_name_H-M   'P 1'
_cell_length_a   7.38377500
_cell_length_b   9.25889300
_cell_length_c   14.19278700
_cell_angle_alpha   90.00000000
_cell_angle_beta   90.00000000
_cell_angle_gamma   90.00000000
_symmetry_Int_Tables_number   1
_chemical_formula_structural   Rb2V(PO4)2
_chemical_formula_sum   'Rb8 V4 P8 O32'
_cell_volume   970.29815284
_cell_formula_units_Z   4
loop_
 _symmetry_equiv_pos_site_id
 _symmetry_equiv_pos_as_xyz
  1  'x, y, z'
loop_
 _atom_site_type_symbol
 _atom_site_label
 _atom_site_symmetry_multiplicity
 _atom_site_fract_x
 _atom_site_fract_y
 _atom_site_fract_z
 _atom_site_occupancy
  Rb  Rb0  1  0.75000000  0.07904100  0.59490200  1
  Rb  Rb1  1  0.75000000  0.63316300  0.45427700  1
  Rb  Rb2  1  0.75000000  0.42095900  0.09490200  1
  Rb  Rb3  1  0.25000000  0.36683700  0.54572300  1
  Rb  Rb4  1  0.25000000  0.57904100  0.90509800  1
  Rb  Rb5  1  0.25000000  0.13316300  0.04572300  1
  Rb  Rb6  1  0.75000000  0.86683700  0.95427700  1
  Rb  Rb7  1  0.25000000  0.92095900  0.40509800  1
  V  V8  1  0.75000000  0.49945600  0.70429900  1
  V  V9  1  0.25000000  0.99945600  0.79570100  1
  V  V10  1  0.25000000  0.50054400  0.29570100  1
  V  V11  1  0.75000000  0.00054400  0.20429900  1
  P  P12  1  0.44991700  0.72799300  0.15113400  1
  P  P13  1  0.55008300  0.27200700  0.84886600  1
  P  P14  1  0.05008300  0.72799300  0.15113400  1
  P  P15  1  0.55008300  0.22799300  0.34886600  1
  P  P16  1  0.94991700  0.27200700  0.84886600  1
  P  P17  1  0.44991700  0.77200700  0.65113400  1
  P  P18  1  0.94991700  0.22799300  0.34886600  1
  P  P19  1  0.05008300  0.77200700  0.65113400  1
  O  O20  1  0.99889100  0.81529900  0.55241600  1
  O  O21  1  0.75000000  0.41468200  0.60115800  1
  O  O22  1  0.56270900  0.09660700  0.28153100  1
  O  O23  1  0.56754600  0.65516300  0.69640600  1
  O  O24  1  0.93245400  0.84483700  0.19640600  1
  O  O25  1  0.06754600  0.15516300  0.80359400  1
  O  O26  1  0.50110900  0.68470100  0.05241600  1
  O  O27  1  0.06270900  0.59660700  0.21846900  1
  O  O28  1  0.56270900  0.40339300  0.78153100  1
  O  O29  1  0.75000000  0.30561700  0.34852100  1
  O  O30  1  0.99889100  0.68470100  0.05241600  1
  O  O31  1  0.75000000  0.19438300  0.84852100  1
  O  O32  1  0.43729100  0.90339300  0.71846900  1
  O  O33  1  0.50110900  0.81529900  0.55241600  1
  O  O34  1  0.93729100  0.40339300  0.78153100  1
  O  O35  1  0.25000000  0.80561700  0.15147900  1
  O  O36  1  0.25000000  0.58531800  0.39884200  1
  O  O37  1  0.06754600  0.34483700  0.30359400  1
  O  O38  1  0.93729100  0.09660700  0.28153100  1
  O  O39  1  0.43245400  0.15516300  0.80359400  1
  O  O40  1  0.06270900  0.90339300  0.71846900  1
  O  O41  1  0.49889100  0.18470100  0.44758400  1
  O  O42  1  0.25000000  0.91468200  0.89884200  1
  O  O43  1  0.93245400  0.65516300  0.69640600  1
  O  O44  1  0.43729100  0.59660700  0.21846900  1
  O  O45  1  0.25000000  0.69438300  0.65147900  1
  O  O46  1  0.00110900  0.31529900  0.94758400  1
  O  O47  1  0.00110900  0.18470100  0.44758400  1
  O  O48  1  0.56754600  0.84483700  0.19640600  1
  O  O49  1  0.49889100  0.31529900  0.94758400  1
  O  O50  1  0.43245400  0.34483700  0.30359400  1
  O  O51  1  0.75000000  0.08531800  0.10115800  1
