# generated using pymatgen
data_Cs2CrO4
_symmetry_space_group_name_H-M   'P 1'
_cell_length_a   6.28586950
_cell_length_b   8.45603694
_cell_length_c   11.19674205
_cell_angle_alpha   90.00000000
_cell_angle_beta   90.00000000
_cell_angle_gamma   90.00000000
_symmetry_Int_Tables_number   1
_chemical_formula_structural   Cs2CrO4
_chemical_formula_sum   'Cs8 Cr4 O16'
_cell_volume   595.14652896
_cell_formula_units_Z   4
loop_
 _symmetry_equiv_pos_site_id
 _symmetry_equiv_pos_as_xyz
  1  'x, y, z'
loop_
 _atom_site_type_symbol
 _atom_site_label
 _atom_site_symmetry_multiplicity
 _atom_site_fract_x
 _atom_site_fract_y
 _atom_site_fract_z
 _atom_site_occupancy
  Cs  Cs0  1  0.25000000  0.51634129  0.69444160  1
  Cs  Cs1  1  0.75000000  0.66771592  0.90931716  1
  Cs  Cs2  1  0.25000000  0.33228408  0.09068284  1
  Cs  Cs3  1  0.75000000  0.16771592  0.59068284  1
  Cs  Cs4  1  0.75000000  0.98365871  0.19444160  1
  Cs  Cs5  1  0.75000000  0.48365871  0.30555840  1
  Cs  Cs6  1  0.25000000  0.01634129  0.80555840  1
  Cs  Cs7  1  0.25000000  0.83228408  0.40931716  1
  Cr  Cr8  1  0.75000000  0.23619543  0.91987847  1
  Cr  Cr9  1  0.75000000  0.73619543  0.58012153  1
  Cr  Cr10  1  0.25000000  0.76380457  0.08012153  1
  Cr  Cr11  1  0.25000000  0.26380457  0.41987847  1
  O  O12  1  0.03492722  0.69317040  0.14578698  1
  O  O13  1  0.75000000  0.54179438  0.58896063  1
  O  O14  1  0.53492722  0.30682960  0.85421302  1
  O  O15  1  0.75000000  0.79199593  0.43854971  1
  O  O16  1  0.96507278  0.30682960  0.85421302  1
  O  O17  1  0.25000000  0.70800407  0.93854971  1
  O  O18  1  0.03492722  0.19317040  0.35421302  1
  O  O19  1  0.25000000  0.45820562  0.41103937  1
  O  O20  1  0.25000000  0.20800407  0.56145029  1
  O  O21  1  0.75000000  0.29199593  0.06145029  1
  O  O22  1  0.46507278  0.19317040  0.35421302  1
  O  O23  1  0.46507278  0.69317040  0.14578698  1
  O  O24  1  0.25000000  0.95820562  0.08896063  1
  O  O25  1  0.96507278  0.80682960  0.64578698  1
  O  O26  1  0.75000000  0.04179438  0.91103937  1
  O  O27  1  0.53492722  0.80682960  0.64578698  1
