# generated using pymatgen
data_Al3Bi5Cl12
_symmetry_space_group_name_H-M   'P 1'
_cell_length_a   12.16708782
_cell_length_b   12.16706263
_cell_length_c   12.16696610
_cell_angle_alpha   58.42825462
_cell_angle_beta   58.42774736
_cell_angle_gamma   58.42771183
_symmetry_Int_Tables_number   1
_chemical_formula_structural   Al3Bi5Cl12
_chemical_formula_sum   'Al6 Bi10 Cl24'
_cell_volume   1227.79775934
_cell_formula_units_Z   2
loop_
 _symmetry_equiv_pos_site_id
 _symmetry_equiv_pos_as_xyz
  1  'x, y, z'
loop_
 _atom_site_type_symbol
 _atom_site_label
 _atom_site_symmetry_multiplicity
 _atom_site_fract_x
 _atom_site_fract_y
 _atom_site_fract_z
 _atom_site_occupancy
  Al  Al0  1  0.22447582  0.74996861  0.27552086  1
  Al  Al1  1  0.77554453  0.25002806  0.72444808  1
  Al  Al2  1  0.72443379  0.77560527  0.25003001  1
  Al  Al3  1  0.27551594  0.22446496  0.74998946  1
  Al  Al4  1  0.25001281  0.72440796  0.77560123  1
  Al  Al5  1  0.74999322  0.27551266  0.22446583  1
  Bi  Bi6  1  0.90912975  0.59087185  0.74999435  1
  Bi  Bi7  1  0.67133895  0.67133355  0.67132745  1
  Bi  Bi8  1  0.17130753  0.17133424  0.17131401  1
  Bi  Bi9  1  0.40912041  0.25001175  0.09087184  1
  Bi  Bi10  1  0.32867488  0.32865295  0.32866697  1
  Bi  Bi11  1  0.09088154  0.40910838  0.25000247  1
  Bi  Bi12  1  0.82868977  0.82867931  0.82868102  1
  Bi  Bi13  1  0.59088277  0.74999340  0.90912153  1
  Bi  Bi14  1  0.74999700  0.90912670  0.59087435  1
  Bi  Bi15  1  0.25000267  0.09087298  0.40912076  1
  Cl  Cl16  1  0.07543458  0.69377630  0.95970551  1
  Cl  Cl17  1  0.11206556  0.26767057  0.69604709  1
  Cl  Cl18  1  0.45970338  0.19380485  0.57540909  1
  Cl  Cl19  1  0.69605270  0.11206767  0.26766968  1
  Cl  Cl20  1  0.69378631  0.95971340  0.07542331  1
  Cl  Cl21  1  0.30621440  0.04030187  0.92457075  1
  Cl  Cl22  1  0.73234242  0.30395219  0.88791004  1
  Cl  Cl23  1  0.88791149  0.73235383  0.30395782  1
  Cl  Cl24  1  0.57541023  0.45970987  0.19379594  1
  Cl  Cl25  1  0.19603910  0.76765409  0.61205150  1
  Cl  Cl26  1  0.95970786  0.07542377  0.69377076  1
  Cl  Cl27  1  0.04029527  0.92458259  0.30621456  1
  Cl  Cl28  1  0.26766663  0.69604620  0.11207205  1
  Cl  Cl29  1  0.54029762  0.80622421  0.42456454  1
  Cl  Cl30  1  0.80620167  0.42458767  0.54029002  1
  Cl  Cl31  1  0.30395899  0.88792419  0.73235049  1
  Cl  Cl32  1  0.76765740  0.61204394  0.19603352  1
  Cl  Cl33  1  0.38797882  0.80394727  0.23232212  1
  Cl  Cl34  1  0.23232332  0.38797881  0.80395206  1
  Cl  Cl35  1  0.92458336  0.30619369  0.04030377  1
  Cl  Cl36  1  0.80395454  0.23232816  0.38796774  1
  Cl  Cl37  1  0.19380260  0.57541002  0.45970169  1
  Cl  Cl38  1  0.61204311  0.19604205  0.76765459  1
  Cl  Cl39  1  0.42456927  0.54028916  0.80622917  1
