# generated using pymatgen
data_Na3Ca(BO2)5
_symmetry_space_group_name_H-M   'P 1'
_cell_length_a   7.48398818
_cell_length_b   7.51895712
_cell_length_c   9.70272385
_cell_angle_alpha   79.03321584
_cell_angle_beta   69.54980994
_cell_angle_gamma   57.82384395
_symmetry_Int_Tables_number   1
_chemical_formula_structural   Na3Ca(BO2)5
_chemical_formula_sum   'Na6 Ca2 B10 O20'
_cell_volume   433.00231287
_cell_formula_units_Z   2
loop_
 _symmetry_equiv_pos_site_id
 _symmetry_equiv_pos_as_xyz
  1  'x, y, z'
loop_
 _atom_site_type_symbol
 _atom_site_label
 _atom_site_symmetry_multiplicity
 _atom_site_fract_x
 _atom_site_fract_y
 _atom_site_fract_z
 _atom_site_occupancy
  Na  Na0  1  0.00812308  0.21143832  0.44990046  1
  Na  Na1  1  0.73278486  0.52742916  0.75042105  1
  Na  Na2  1  0.99187692  0.78856168  0.55009954  1
  Na  Na3  1  0.84116736  0.95542755  0.17186626  1
  Na  Na4  1  0.15883264  0.04457245  0.82813374  1
  Na  Na5  1  0.26721514  0.47257084  0.24957895  1
  Ca  Ca6  1  0.78715448  0.46082059  0.11681105  1
  Ca  Ca7  1  0.21284552  0.53917941  0.88318895  1
  B  B8  1  0.58142445  0.14923762  0.71082996  1
  B  B9  1  0.70431086  0.17874090  0.91464109  1
  B  B10  1  0.73030556  0.71720557  0.39777207  1
  B  B11  1  0.29568914  0.82125910  0.08535891  1
  B  B12  1  0.24025977  0.15996043  0.13045673  1
  B  B13  1  0.75974023  0.84003957  0.86954327  1
  B  B14  1  0.26969444  0.28279443  0.60222793  1
  B  B15  1  0.63042568  0.23506263  0.44054316  1
  B  B16  1  0.41857555  0.85076238  0.28917004  1
  B  B17  1  0.36957432  0.76493737  0.55945684  1
  O  O18  1  0.75696753  0.27768860  0.97749344  1
  O  O19  1  0.24303247  0.72231140  0.02250656  1
  O  O20  1  0.66965670  0.92773981  0.75561609  1
  O  O21  1  0.33034330  0.07226019  0.24438391  1
  O  O22  1  0.76292225  0.24157995  0.30851268  1
  O  O23  1  0.40456846  0.73005403  0.19200854  1
  O  O24  1  0.23166672  0.03209175  0.04843426  1
  O  O25  1  0.07971292  0.29801251  0.62120963  1
  O  O26  1  0.34776362  0.24653952  0.72323200  1
  O  O27  1  0.14773702  0.36545174  0.10213623  1
  O  O28  1  0.59543154  0.26994597  0.80799146  1
  O  O29  1  0.40774334  0.30081190  0.46362895  1
  O  O30  1  0.71210486  0.15848175  0.56067932  1
  O  O31  1  0.92028708  0.70198749  0.37879037  1
  O  O32  1  0.76833328  0.96790825  0.95156574  1
  O  O33  1  0.23707775  0.75842005  0.69148732  1
  O  O34  1  0.65223638  0.75346048  0.27676800  1
  O  O35  1  0.28789514  0.84151825  0.43932068  1
  O  O36  1  0.85226298  0.63454826  0.89786377  1
  O  O37  1  0.59225666  0.69918810  0.53637105  1
