# generated using pymatgen
data_Cs3Bi2I9
_symmetry_space_group_name_H-M   'P 1'
_cell_length_a   8.54000754
_cell_length_b   8.53878530
_cell_length_c   21.63173124
_cell_angle_alpha   90.00215417
_cell_angle_beta   90.00852326
_cell_angle_gamma   119.99501896
_symmetry_Int_Tables_number   1
_chemical_formula_structural   Cs3Bi2I9
_chemical_formula_sum   'Cs6 Bi4 I18'
_cell_volume   1366.14892869
_cell_formula_units_Z   2
loop_
 _symmetry_equiv_pos_site_id
 _symmetry_equiv_pos_as_xyz
  1  'x, y, z'
loop_
 _atom_site_type_symbol
 _atom_site_label
 _atom_site_symmetry_multiplicity
 _atom_site_fract_x
 _atom_site_fract_y
 _atom_site_fract_z
 _atom_site_occupancy
  Cs  Cs0  1  0.33336378  0.66666600  0.42484317  1
  Cs  Cs1  1  0.66667158  0.33334398  0.57514729  1
  Cs  Cs2  1  0.33336550  0.66666109  0.07518772  1
  Cs  Cs3  1  0.00001694  0.00004492  0.25001349  1
  Cs  Cs4  1  0.66668091  0.33335717  0.92486967  1
  Cs  Cs5  1  0.00000579  0.00001269  0.75000081  1
  Bi  Bi6  1  0.33333645  0.66661574  0.84388440  1
  Bi  Bi7  1  0.66667793  0.33329866  0.15613997  1
  Bi  Bi8  1  0.33323020  0.66664826  0.65610486  1
  Bi  Bi9  1  0.66668686  0.33335715  0.34387800  1
  I  I10  1  0.16448595  0.83558374  0.58232479  1
  I  I11  1  0.83552705  0.67106199  0.08236803  1
  I  I12  1  0.83551306  0.16451734  0.41754268  1
  I  I13  1  0.49642953  0.99301029  0.24999215  1
  I  I14  1  0.83548791  0.16445259  0.08234330  1
  I  I15  1  0.16447767  0.32894573  0.91773503  1
  I  I16  1  0.00694501  0.50343044  0.25001547  1
  I  I17  1  0.99308991  0.49651258  0.74998591  1
  I  I18  1  0.67092562  0.83547804  0.58229237  1
  I  I19  1  0.49652577  0.50351064  0.24998539  1
  I  I20  1  0.67114766  0.83558109  0.91764212  1
  I  I21  1  0.83556437  0.67115355  0.41766002  1
  I  I22  1  0.16447628  0.32877204  0.58231959  1
  I  I23  1  0.50348373  0.00687099  0.74999196  1
  I  I24  1  0.32897742  0.16452359  0.41767983  1
  I  I25  1  0.32892760  0.16455497  0.08235203  1
  I  I26  1  0.50347828  0.49658004  0.75000554  1
  I  I27  1  0.16449924  0.83545469  0.91769440  1
