# generated using pymatgen
data_Ca3Cu3(PO4)4
_symmetry_space_group_name_H-M   'P 1'
_cell_length_a   4.88689240
_cell_length_b   8.90191870
_cell_length_c   16.56455540
_cell_angle_alpha   61.82774402
_cell_angle_beta   90.00000000
_cell_angle_gamma   90.00000000
_symmetry_Int_Tables_number   1
_chemical_formula_structural   Ca3Cu3(PO4)4
_chemical_formula_sum   'Ca6 Cu6 P8 O32'
_cell_volume   635.23489854
_cell_formula_units_Z   2
loop_
 _symmetry_equiv_pos_site_id
 _symmetry_equiv_pos_as_xyz
  1  'x, y, z'
loop_
 _atom_site_type_symbol
 _atom_site_label
 _atom_site_symmetry_multiplicity
 _atom_site_fract_x
 _atom_site_fract_y
 _atom_site_fract_z
 _atom_site_occupancy
  Ca  Ca0  1  0.46492556  0.19592782  0.26543967  1
  Ca  Ca1  1  0.96492556  0.80407218  0.23456033  1
  Ca  Ca2  1  0.53507444  0.80407218  0.73456033  1
  Ca  Ca3  1  0.03507444  0.19592782  0.76543967  1
  Ca  Ca4  1  0.00000000  0.50000000  0.50000000  1
  Ca  Ca5  1  0.50000000  0.50000000  0.00000000  1
  Cu  Cu6  1  0.47008605  0.70519441  0.11981578  1
  Cu  Cu7  1  0.97008605  0.29480559  0.38018422  1
  Cu  Cu8  1  0.52991395  0.29480559  0.88018422  1
  Cu  Cu9  1  0.02991395  0.70519441  0.61981578  1
  Cu  Cu10  1  0.00000000  0.00000000  0.00000000  1
  Cu  Cu11  1  0.50000000  0.00000000  0.50000000  1
  P  P12  1  0.01735077  0.53642574  0.83985739  1
  P  P13  1  0.51735077  0.46357426  0.66014261  1
  P  P14  1  0.98264923  0.46357426  0.16014261  1
  P  P15  1  0.48264923  0.53642574  0.33985739  1
  P  P16  1  0.98870631  0.06280137  0.59361101  1
  P  P17  1  0.48870631  0.93719863  0.90638899  1
  P  P18  1  0.01129369  0.93719863  0.40638899  1
  P  P19  1  0.51129369  0.06280137  0.09361101  1
  O  O20  1  0.96611810  0.67731801  0.73942955  1
  O  O21  1  0.46611810  0.32268199  0.76057045  1
  O  O22  1  0.03388190  0.32268199  0.26057045  1
  O  O23  1  0.53388190  0.67731801  0.23942955  1
  O  O24  1  0.17136857  0.53181886  0.35682295  1
  O  O25  1  0.67136857  0.46818114  0.14317705  1
  O  O26  1  0.82863143  0.46818114  0.64317705  1
  O  O27  1  0.32863143  0.53181886  0.85682295  1
  O  O28  1  0.92664292  0.36096370  0.85150730  1
  O  O29  1  0.42664292  0.63903630  0.64849270  1
  O  O30  1  0.07335708  0.63903630  0.14849270  1
  O  O31  1  0.57335708  0.36096370  0.35150730  1
  O  O32  1  0.85768732  0.59299940  0.89870505  1
  O  O33  1  0.35768732  0.40700060  0.60129495  1
  O  O34  1  0.14231268  0.40700060  0.10129495  1
  O  O35  1  0.64231268  0.59299940  0.39870505  1
  O  O36  1  0.80775450  0.92751692  0.58223722  1
  O  O37  1  0.30775450  0.07248308  0.91776278  1
  O  O38  1  0.19224550  0.07248308  0.41776278  1
  O  O39  1  0.69224550  0.92751692  0.08223722  1
  O  O40  1  0.60011271  0.06506283  0.18011064  1
  O  O41  1  0.10011271  0.93493717  0.31988936  1
  O  O42  1  0.39988729  0.93493717  0.81988936  1
  O  O43  1  0.89988729  0.06506283  0.68011064  1
  O  O44  1  0.94176205  0.23544492  0.50860801  1
  O  O45  1  0.44176205  0.76455508  0.99139199  1
  O  O46  1  0.05823795  0.76455508  0.49139199  1
  O  O47  1  0.55823795  0.23544492  0.00860801  1
  O  O48  1  0.21160652  0.00270666  0.09997967  1
  O  O49  1  0.71160652  0.99729334  0.40002033  1
  O  O50  1  0.78839348  0.99729334  0.90002033  1
  O  O51  1  0.28839348  0.00270666  0.59997967  1
