# generated using pymatgen
data_AgHgAsS3
_symmetry_space_group_name_H-M   'P 1'
_cell_length_a   6.59009171
_cell_length_b   6.59009171
_cell_length_c   7.85117914
_cell_angle_alpha   78.09616262
_cell_angle_beta   78.09616262
_cell_angle_gamma   118.91525133
_symmetry_Int_Tables_number   1
_chemical_formula_structural   AgHgAsS3
_chemical_formula_sum   'Ag2 Hg2 As2 S6'
_cell_volume   272.77148743
_cell_formula_units_Z   2
loop_
 _symmetry_equiv_pos_site_id
 _symmetry_equiv_pos_as_xyz
  1  'x, y, z'
loop_
 _atom_site_type_symbol
 _atom_site_label
 _atom_site_symmetry_multiplicity
 _atom_site_fract_x
 _atom_site_fract_y
 _atom_site_fract_z
 _atom_site_occupancy
  Ag  Ag0  1  0.02243292  0.97797105  0.25214929  1
  Ag  Ag1  1  0.97797105  0.02243292  0.75214929  1
  Hg  Hg2  1  0.71021752  0.34334726  0.21588075  1
  Hg  Hg3  1  0.34334726  0.71021752  0.71588075  1
  As  As4  1  0.38108704  0.67219315  0.20598426  1
  As  As5  1  0.67219315  0.38108704  0.70598426  1
  S  S6  1  0.77051738  0.01687714  0.06087675  1
  S  S7  1  0.01687714  0.77051738  0.56087675  1
  S  S8  1  0.75277017  0.18409276  0.51745907  1
  S  S9  1  0.41490970  0.43478393  0.58004988  1
  S  S10  1  0.43478393  0.41490970  0.08004988  1
  S  S11  1  0.18409276  0.75277017  0.01745907  1
