# generated using pymatgen
data_Cs3ZnH5
_symmetry_space_group_name_H-M   'P 1'
_cell_length_a   8.44391011
_cell_length_b   8.44391011
_cell_length_c   8.44391011
_cell_angle_alpha   121.53247401
_cell_angle_beta   121.53247401
_cell_angle_gamma   87.36555857
_symmetry_Int_Tables_number   1
_chemical_formula_structural   Cs3ZnH5
_chemical_formula_sum   'Cs6 Zn2 H10'
_cell_volume   415.37376932
_cell_formula_units_Z   2
loop_
 _symmetry_equiv_pos_site_id
 _symmetry_equiv_pos_as_xyz
  1  'x, y, z'
loop_
 _atom_site_type_symbol
 _atom_site_label
 _atom_site_symmetry_multiplicity
 _atom_site_fract_x
 _atom_site_fract_y
 _atom_site_fract_z
 _atom_site_occupancy
  Cs  Cs0  1  0.17888962  0.67888962  0.85777925  1
  Cs  Cs1  1  0.82111038  0.32111038  0.14222075  1
  Cs  Cs2  1  0.67888962  0.82111038  0.50000000  1
  Cs  Cs3  1  0.32111038  0.17888962  0.50000000  1
  Cs  Cs4  1  0.25000000  0.25000000  -0.00000000  1
  Cs  Cs5  1  0.75000000  0.75000000  -0.00000000  1
  Zn  Zn6  1  0.25000000  0.75000000  0.50000000  1
  Zn  Zn7  1  0.75000000  0.25000000  0.50000000  1
  H  H8  1  0.44476002  0.94476002  0.72963353  1
  H  H9  1  0.21512649  0.71512649  0.27036647  1
  H  H10  1  0.94476002  0.21512649  0.50000000  1
  H  H11  1  0.71512649  0.44476002  0.50000000  1
  H  H12  1  0.55523998  0.05523998  0.27036647  1
  H  H13  1  0.78487351  0.28487351  0.72963353  1
  H  H14  1  0.05523998  0.78487351  0.50000000  1
  H  H15  1  0.28487351  0.55523998  0.50000000  1
  H  H16  1  0.50000000  0.50000000  -0.00000000  1
  H  H17  1  -0.00000000  -0.00000000  -0.00000000  1
