# generated using pymatgen
data_Cr2(MoO4)3
_symmetry_space_group_name_H-M   'P 1'
_cell_length_a   9.20315535
_cell_length_b   9.27367051
_cell_length_c   12.69372389
_cell_angle_alpha   90.00000000
_cell_angle_beta   90.00000000
_cell_angle_gamma   90.00000000
_symmetry_Int_Tables_number   1
_chemical_formula_structural   Cr2(MoO4)3
_chemical_formula_sum   'Cr8 Mo12 O48'
_cell_volume   1083.37163833
_cell_formula_units_Z   4
loop_
 _symmetry_equiv_pos_site_id
 _symmetry_equiv_pos_as_xyz
  1  'x, y, z'
loop_
 _atom_site_type_symbol
 _atom_site_label
 _atom_site_symmetry_multiplicity
 _atom_site_fract_x
 _atom_site_fract_y
 _atom_site_fract_z
 _atom_site_occupancy
  Cr  Cr0  1  0.25001290  0.53638786  0.61959767  1
  Cr  Cr1  1  0.74998710  0.03638786  0.61959767  1
  Cr  Cr2  1  0.24998710  0.03638786  0.88040233  1
  Cr  Cr3  1  0.24998710  0.46361214  0.11959767  1
  Cr  Cr4  1  0.75001290  0.53638786  0.88040233  1
  Cr  Cr5  1  0.75001290  0.96361214  0.11959767  1
  Cr  Cr6  1  0.25001290  0.96361214  0.38040233  1
  Cr  Cr7  1  0.74998710  0.46361214  0.38040233  1
  Mo  Mo8  1  0.10036310  0.62140558  0.35448313  1
  Mo  Mo9  1  0.02378842  0.75000000  0.00000000  1
  Mo  Mo10  1  0.97621158  0.25000000  0.00000000  1
  Mo  Mo11  1  0.89963690  0.12140558  0.35448313  1
  Mo  Mo12  1  0.89963690  0.37859442  0.64551687  1
  Mo  Mo13  1  0.60036310  0.87859442  0.85448313  1
  Mo  Mo14  1  0.47621158  0.25000000  0.50000000  1
  Mo  Mo15  1  0.39963690  0.12140558  0.14551687  1
  Mo  Mo16  1  0.52378842  0.75000000  0.50000000  1
  Mo  Mo17  1  0.10036310  0.87859442  0.64551687  1
  Mo  Mo18  1  0.39963690  0.37859442  0.85448313  1
  Mo  Mo19  1  0.60036310  0.62140558  0.14551687  1
  O  O20  1  0.82438122  0.42021195  0.52186426  1
  O  O21  1  0.91057925  0.90345016  0.64198678  1
  O  O22  1  0.67561878  0.92021195  0.97813574  1
  O  O23  1  0.08850701  0.17067287  0.90349702  1
  O  O24  1  0.67561878  0.57978805  0.02186426  1
  O  O25  1  0.41149299  0.67067287  0.59650298  1
  O  O26  1  0.08942075  0.40345016  0.64198678  1
  O  O27  1  0.32438122  0.07978805  0.02186426  1
  O  O28  1  0.36625172  0.30429017  0.17558478  1
  O  O29  1  0.13374828  0.80429017  0.32441522  1
  O  O30  1  0.41057925  0.90345016  0.85801322  1
  O  O31  1  0.08850701  0.32932713  0.09650298  1
  O  O32  1  0.13191667  0.88126323  0.93837563  1
  O  O33  1  0.86625172  0.30429017  0.32441522  1
  O  O34  1  0.63374828  0.69570983  0.82441522  1
  O  O35  1  0.91149299  0.82932713  0.09650298  1
  O  O36  1  0.86808333  0.11873677  0.06162437  1
  O  O37  1  0.36625172  0.19570983  0.82441522  1
  O  O38  1  0.58942075  0.09654984  0.14198678  1
  O  O39  1  0.08942075  0.09654984  0.35801322  1
  O  O40  1  0.17561878  0.57978805  0.47813574  1
  O  O41  1  0.82238301  0.00682291  0.25938813  1
  O  O42  1  0.41149299  0.82932713  0.40349702  1
  O  O43  1  0.36808333  0.11873677  0.43837563  1
  O  O44  1  0.32438122  0.42021195  0.97813574  1
  O  O45  1  0.86625172  0.19570983  0.67558478  1
  O  O46  1  0.91057925  0.59654984  0.35801322  1
  O  O47  1  0.13374828  0.69570983  0.67558478  1
  O  O48  1  0.86808333  0.38126323  0.93837563  1
  O  O49  1  0.36808333  0.38126323  0.56162437  1
  O  O50  1  0.41057925  0.59654984  0.14198678  1
  O  O51  1  0.17761699  0.50682291  0.25938813  1
  O  O52  1  0.63374828  0.80429017  0.17558478  1
  O  O53  1  0.17761699  0.99317709  0.74061187  1
  O  O54  1  0.82438122  0.07978805  0.47813574  1
  O  O55  1  0.58942075  0.40345016  0.85801322  1
  O  O56  1  0.17561878  0.92021195  0.52186426  1
  O  O57  1  0.32238301  0.49317709  0.75938813  1
  O  O58  1  0.58850701  0.32932713  0.40349702  1
  O  O59  1  0.82238301  0.49317709  0.74061187  1
  O  O60  1  0.67761699  0.50682291  0.24061187  1
  O  O61  1  0.91149299  0.67067287  0.90349702  1
  O  O62  1  0.63191667  0.61873677  0.43837563  1
  O  O63  1  0.32238301  0.00682291  0.24061187  1
  O  O64  1  0.63191667  0.88126323  0.56162437  1
  O  O65  1  0.13191667  0.61873677  0.06162437  1
  O  O66  1  0.58850701  0.17067287  0.59650298  1
  O  O67  1  0.67761699  0.99317709  0.75938813  1
