# generated using pymatgen
data_Li5Co2(PO4)3
_symmetry_space_group_name_H-M   'P 1'
_cell_length_a   8.69997864
_cell_length_b   8.79295979
_cell_length_c   12.41254049
_cell_angle_alpha   90.02394366
_cell_angle_beta   89.30162288
_cell_angle_gamma   89.93155521
_symmetry_Int_Tables_number   1
_chemical_formula_structural   Li5Co2(PO4)3
_chemical_formula_sum   'Li20 Co8 P12 O48'
_cell_volume   949.47020023
_cell_formula_units_Z   4
loop_
 _symmetry_equiv_pos_site_id
 _symmetry_equiv_pos_as_xyz
  1  'x, y, z'
loop_
 _atom_site_type_symbol
 _atom_site_label
 _atom_site_symmetry_multiplicity
 _atom_site_fract_x
 _atom_site_fract_y
 _atom_site_fract_z
 _atom_site_occupancy
  Li  Li0  1  0.93237900  0.52074400  0.35029200  1
  Li  Li1  1  0.92764800  0.09356200  0.69570000  1
  Li  Li2  1  0.85697500  0.73251300  0.74684600  1
  Li  Li3  1  0.90461000  0.65709400  0.97472000  1
  Li  Li4  1  0.79720100  0.77004700  0.18412100  1
  Li  Li5  1  0.70277900  0.26916100  0.31618100  1
  Li  Li6  1  0.59540500  0.15543800  0.52441900  1
  Li  Li7  1  0.64298700  0.23218400  0.75325200  1
  Li  Li8  1  0.57234500  0.59364500  0.80447500  1
  Li  Li9  1  0.56878600  0.02075100  0.14978800  1
  Li  Li10  1  0.44579700  0.98700900  0.84171800  1
  Li  Li11  1  0.42385300  0.40585000  0.19386900  1
  Li  Li12  1  0.37398900  0.77163600  0.25654400  1
  Li  Li13  1  0.34669600  0.68144600  0.49300000  1
  Li  Li14  1  0.30040900  0.73836100  0.69585900  1
  Li  Li15  1  0.19941300  0.23795700  0.80372100  1
  Li  Li16  1  0.15208600  0.18253800  0.00659000  1
  Li  Li17  1  0.12612800  0.27188400  0.24384500  1
  Li  Li18  1  0.07520600  0.90587500  0.30669900  1
  Li  Li19  1  0.05466600  0.48679000  0.65826100  1
  Co  Co20  1  0.74132400  0.53061500  0.59866300  1
  Co  Co21  1  0.75797600  0.03093500  0.90110400  1
  Co  Co22  1  0.75025900  0.45022400  0.11015900  1
  Co  Co23  1  0.75004000  0.95094500  0.39033600  1
  Co  Co24  1  0.25000500  0.04469300  0.60162500  1
  Co  Co25  1  0.24860600  0.54501600  0.89864500  1
  Co  Co26  1  0.25554900  0.94406000  0.10772600  1
  Co  Co27  1  0.24514600  0.44370400  0.39237900  1
  P  P28  1  0.95022000  0.24736300  0.49331200  1
  P  P29  1  0.89221000  0.39353400  0.84958700  1
  P  P30  1  0.89225600  0.10034500  0.15603400  1
  P  P31  1  0.60759100  0.89348600  0.65043700  1
  P  P32  1  0.60796300  0.60041100  0.34370900  1
  P  P33  1  0.55042700  0.74767400  0.00667900  1
  P  P34  1  0.45228300  0.24788100  0.99075200  1
  P  P35  1  0.39745600  0.39940700  0.64833500  1
  P  P36  1  0.39523200  0.10787400  0.34776400  1
  P  P37  1  0.10267800  0.89981500  0.85170600  1
  P  P38  1  0.10464000  0.60830200  0.15259800  1
  P  P39  1  0.04750900  0.74791400  0.50950800  1
  O  O40  1  0.95786000  0.86165200  0.44161800  1
  O  O41  1  0.92730400  0.86356900  0.86961100  1
  O  O42  1  0.95541000  0.68046500  0.60644500  1
  O  O43  1  0.93367800  0.58931300  0.19095900  1
  O  O44  1  0.90954100  0.37356700  0.57620400  1
  O  O45  1  0.84925000  0.22689000  0.81837300  1
  O  O46  1  0.87474700  0.42108800  0.97054600  1
  O  O47  1  0.87191900  0.97559100  0.24431300  1
  O  O48  1  0.83745700  0.25854500  0.19426800  1
  O  O49  1  0.79763700  0.17910300  0.44889900  1
  O  O50  1  0.79582600  0.04752000  0.05969400  1
  O  O51  1  0.79146900  0.51044800  0.78652500  1
  O  O52  1  0.70831700  0.01015400  0.71362100  1
  O  O53  1  0.70436500  0.54752100  0.44012000  1
  O  O54  1  0.70310500  0.67970500  0.05075900  1
  O  O55  1  0.66258100  0.75832000  0.30563800  1
  O  O56  1  0.62547700  0.92134400  0.52945700  1
  O  O57  1  0.62806000  0.47549300  0.25541600  1
  O  O58  1  0.65082700  0.72687200  0.68150400  1
  O  O59  1  0.59031000  0.87369100  0.92361800  1
  O  O60  1  0.54469900  0.18026500  0.89374900  1
  O  O61  1  0.57284000  0.36295900  0.63019800  1
  O  O62  1  0.56653100  0.08849200  0.30956100  1
  O  O63  1  0.54186200  0.36122000  0.05880600  1
  O  O64  1  0.45807400  0.62818600  0.94402900  1
  O  O65  1  0.43631400  0.91866700  0.68736000  1
  O  O66  1  0.43029800  0.61364200  0.36371400  1
  O  O67  1  0.46000900  0.81587900  0.10561500  1
  O  O68  1  0.39958900  0.11990000  0.07011400  1
  O  O69  1  0.33970800  0.26648200  0.30602600  1
  O  O70  1  0.37895100  0.51938600  0.74047400  1
  O  O71  1  0.38599200  0.10875100  0.47131200  1
  O  O72  1  0.31870600  0.24838100  0.67886700  1
  O  O73  1  0.30023200  0.31764400  0.94351700  1
  O  O74  1  0.32222400  0.47330600  0.54894600  1
  O  O75  1  0.29791100  0.98076000  0.29497400  1
  O  O76  1  0.20195500  0.48079500  0.20494600  1
  O  O77  1  0.17751700  0.97341700  0.95114100  1
  O  O78  1  0.19966100  0.81779000  0.55632300  1
  O  O79  1  0.18075400  0.74780900  0.82086500  1
  O  O80  1  0.12142100  0.01946400  0.75964400  1
  O  O81  1  0.11369700  0.60862900  0.02860200  1
  O  O82  1  0.16052100  0.76681900  0.19375600  1
  O  O83  1  0.10082400  0.62011800  0.42993800  1
  O  O84  1  0.06359000  0.41828500  0.81249900  1
  O  O85  1  0.04045600  0.31558900  0.39443500  1
  O  O86  1  0.06978900  0.11382900  0.13618300  1
  O  O87  1  0.04198400  0.12789600  0.55586600  1
