# generated using pymatgen
data_Ho2(SeO3)3
_symmetry_space_group_name_H-M   'P 1'
_cell_length_a   6.97899247
_cell_length_b   8.00516086
_cell_length_c   8.91953684
_cell_angle_alpha   71.64811660
_cell_angle_beta   70.26948559
_cell_angle_gamma   66.14452694
_symmetry_Int_Tables_number   1
_chemical_formula_structural   Ho2(SeO3)3
_chemical_formula_sum   'Ho4 Se6 O18'
_cell_volume   419.68430299
_cell_formula_units_Z   2
loop_
 _symmetry_equiv_pos_site_id
 _symmetry_equiv_pos_as_xyz
  1  'x, y, z'
loop_
 _atom_site_type_symbol
 _atom_site_label
 _atom_site_symmetry_multiplicity
 _atom_site_fract_x
 _atom_site_fract_y
 _atom_site_fract_z
 _atom_site_occupancy
  Ho  Ho0  1  0.25783017  0.26378545  0.20334988  1
  Ho  Ho1  1  0.33326859  0.72775964  0.58983484  1
  Ho  Ho2  1  0.66673141  0.27224036  0.41016516  1
  Ho  Ho3  1  0.74216983  0.73621455  0.79665012  1
  Se  Se4  1  0.11488077  0.24110006  0.58904333  1
  Se  Se5  1  0.42717174  0.77604877  0.19684050  1
  Se  Se6  1  0.14646175  0.75161156  0.96591387  1
  Se  Se7  1  0.85353825  0.24838844  0.03408613  1
  Se  Se8  1  0.57282826  0.22395123  0.80315950  1
  Se  Se9  1  0.88511923  0.75889994  0.41095667  1
  O  O10  1  0.15661782  0.01273747  0.65608927  1
  O  O11  1  0.16884772  0.56509177  0.11950470  1
  O  O12  1  0.03462329  0.70433068  0.55071346  1
  O  O13  1  0.34572382  0.24964353  0.43874878  1
  O  O14  1  0.06708921  0.69349521  0.83223695  1
  O  O15  1  0.59246507  0.28792086  0.14935405  1
  O  O16  1  0.34907748  0.20567279  0.94846915  1
  O  O17  1  0.35943521  0.94301083  0.30650387  1
  O  O18  1  0.51797318  0.59361636  0.34942147  1
  O  O19  1  0.48202682  0.40638364  0.65057853  1
  O  O20  1  0.64056479  0.05698917  0.69349613  1
  O  O21  1  0.65092252  0.79432721  0.05153085  1
  O  O22  1  0.40753493  0.71207914  0.85064595  1
  O  O23  1  0.93291079  0.30650479  0.16776305  1
  O  O24  1  0.65427618  0.75035647  0.56125122  1
  O  O25  1  0.96537671  0.29566932  0.44928654  1
  O  O26  1  0.83115228  0.43490823  0.88049530  1
  O  O27  1  0.84338218  0.98726253  0.34391073  1
