# generated using pymatgen
data_Gd3NbO7
_symmetry_space_group_name_H-M   'P 1'
_cell_length_a   6.43260264
_cell_length_b   6.53016937
_cell_length_c   7.65673420
_cell_angle_alpha   106.88561766
_cell_angle_beta   89.78566257
_cell_angle_gamma   97.53629653
_symmetry_Int_Tables_number   1
_chemical_formula_structural   Gd3NbO7
_chemical_formula_sum   'Gd6 Nb2 O14'
_cell_volume   304.90353094
_cell_formula_units_Z   2
loop_
 _symmetry_equiv_pos_site_id
 _symmetry_equiv_pos_as_xyz
  1  'x, y, z'
loop_
 _atom_site_type_symbol
 _atom_site_label
 _atom_site_symmetry_multiplicity
 _atom_site_fract_x
 _atom_site_fract_y
 _atom_site_fract_z
 _atom_site_occupancy
  Gd  Gd0  1  0.73793380  0.46382097  0.11659092  1
  Gd  Gd1  1  0.73859891  0.46184061  0.61071446  1
  Gd  Gd2  1  0.54540486  0.99337943  0.74940575  1
  Gd  Gd3  1  0.45459514  0.00662057  0.25059425  1
  Gd  Gd4  1  0.26140109  0.53815939  0.38928554  1
  Gd  Gd5  1  0.26206620  0.53617903  0.88340908  1
  Nb  Nb6  1  0.00000000  0.00000000  -0.00000000  1
  Nb  Nb7  1  0.00000000  0.00000000  0.50000000  1
  O  O8  1  0.71041347  0.06944131  0.48387990  1
  O  O9  1  0.92163911  0.67854095  0.94810078  1
  O  O10  1  0.70924057  0.07107965  0.05000193  1
  O  O11  1  0.92522095  0.67012302  0.39359664  1
  O  O12  1  0.91324389  0.95400380  0.73759520  1
  O  O13  1  0.55815387  0.35060880  0.83470999  1
  O  O14  1  0.54303779  0.36235712  0.34215809  1
  O  O15  1  0.45696221  0.63764288  0.65784191  1
  O  O16  1  0.44184613  0.64939120  0.16529001  1
  O  O17  1  0.08675611  0.04599620  0.26240480  1
  O  O18  1  0.07477905  0.32987698  0.60640336  1
  O  O19  1  0.29075943  0.92892035  0.94999807  1
  O  O20  1  0.07836089  0.32145905  0.05189922  1
  O  O21  1  0.28958653  0.93055869  0.51612010  1
