# generated using pymatgen
data_Na2SnO3
_symmetry_space_group_name_H-M   'P 1'
_cell_length_a   5.53332790
_cell_length_b   5.53332790
_cell_length_c   11.00483303
_cell_angle_alpha   85.12889511
_cell_angle_beta   85.12889511
_cell_angle_gamma   120.03674729
_symmetry_Int_Tables_number   1
_chemical_formula_structural   Na2SnO3
_chemical_formula_sum   'Na8 Sn4 O12'
_cell_volume   287.45097003
_cell_formula_units_Z   4
loop_
 _symmetry_equiv_pos_site_id
 _symmetry_equiv_pos_as_xyz
  1  'x, y, z'
loop_
 _atom_site_type_symbol
 _atom_site_label
 _atom_site_symmetry_multiplicity
 _atom_site_fract_x
 _atom_site_fract_y
 _atom_site_fract_z
 _atom_site_occupancy
  Na  Na0  1  0.68369734  0.84150513  0.50011512  1
  Na  Na1  1  0.50000000  -0.00000000  -0.00000000  1
  Na  Na2  1  0.08409944  0.91590056  0.25000000  1
  Na  Na3  1  -0.00000000  0.50000000  0.50000000  1
  Na  Na4  1  0.84150513  0.68369734  0.00011512  1
  Na  Na5  1  0.15849487  0.31630266  0.99988488  1
  Na  Na6  1  0.91590056  0.08409944  0.75000000  1
  Na  Na7  1  0.31630266  0.15849487  0.49988488  1
  Sn  Sn8  1  0.41777712  0.58222288  0.25000000  1
  Sn  Sn9  1  0.24956099  0.75043901  0.75000000  1
  Sn  Sn10  1  0.75043901  0.24956099  0.25000000  1
  Sn  Sn11  1  0.58222288  0.41777712  0.75000000  1
  O  O12  1  0.75418190  0.95237073  0.14266729  1
  O  O13  1  0.41667828  0.87980251  0.35620857  1
  O  O14  1  0.12019749  0.58332172  0.14379143  1
  O  O15  1  0.51237659  0.68064619  0.85667576  1
  O  O16  1  0.95237073  0.75418190  0.64266729  1
  O  O17  1  0.31935381  0.48762341  0.64332424  1
  O  O18  1  0.68064619  0.51237659  0.35667576  1
  O  O19  1  0.04762927  0.24581810  0.35733271  1
  O  O20  1  0.48762341  0.31935381  0.14332424  1
  O  O21  1  0.87980251  0.41667828  0.85620857  1
  O  O22  1  0.58332172  0.12019749  0.64379143  1
  O  O23  1  0.24581810  0.04762927  0.85733271  1
