# generated using pymatgen
data_Li6VFe3(PO4)6
_symmetry_space_group_name_H-M   'P 1'
_cell_length_a   8.59986359
_cell_length_b   8.64599649
_cell_length_c   8.62984110
_cell_angle_alpha   61.53642092
_cell_angle_beta   61.37435079
_cell_angle_gamma   61.41683564
_symmetry_Int_Tables_number   1
_chemical_formula_structural   Li6VFe3(PO4)6
_chemical_formula_sum   'Li6 V1 Fe3 P6 O24'
_cell_volume   468.42299096
_cell_formula_units_Z   1
loop_
 _symmetry_equiv_pos_site_id
 _symmetry_equiv_pos_as_xyz
  1  'x, y, z'
loop_
 _atom_site_type_symbol
 _atom_site_label
 _atom_site_symmetry_multiplicity
 _atom_site_fract_x
 _atom_site_fract_y
 _atom_site_fract_z
 _atom_site_occupancy
  Li  Li0  1  0.02603700  0.00714600  0.99745700  1
  Li  Li1  1  0.74988800  0.15255800  0.34852700  1
  Li  Li2  1  0.47528500  0.50299300  0.49444800  1
  Li  Li3  1  0.25723000  0.84230500  0.65300300  1
  Li  Li4  1  0.65252900  0.26245100  0.83905500  1
  Li  Li5  1  0.84094800  0.65326800  0.25750400  1
  V  V6  1  0.85681600  0.85366900  0.85347000  1
  Fe  Fe7  1  0.14594100  0.14605800  0.13718900  1
  Fe  Fe8  1  0.35327100  0.36227800  0.35503000  1
  Fe  Fe9  1  0.64722100  0.64850900  0.64927100  1
  P  P10  1  0.04902700  0.75117300  0.44970300  1
  P  P11  1  0.45068000  0.05049800  0.74821100  1
  P  P12  1  0.75018300  0.45223800  0.04697200  1
  P  P13  1  0.25117400  0.54071000  0.95825400  1
  P  P14  1  0.54251800  0.96126800  0.25172000  1
  P  P15  1  0.95514700  0.25014200  0.53695500  1
  O  O16  1  0.12750700  0.29148800  0.49522500  1
  O  O17  1  0.30352800  0.50806400  0.11916500  1
  O  O18  1  0.04651700  0.92268500  0.26962700  1
  O  O19  1  0.52997600  0.12026200  0.29614500  1
  O  O20  1  0.23826400  0.59279100  0.43010700  1
  O  O21  1  0.01592600  0.80625400  0.61299100  1
  O  O22  1  0.26129600  0.07028000  0.90756200  1
  O  O23  1  0.45083000  0.23204900  0.57702400  1
  O  O24  1  0.59231300  0.43082000  0.24038200  1
  O  O25  1  0.19677000  0.38101500  0.99128100  1
  O  O26  1  0.09250500  0.73474600  0.93276500  1
  O  O27  1  0.37179800  0.00406700  0.20779400  1
  O  O28  1  0.61287600  0.01497700  0.80455000  1
  O  O29  1  0.90677700  0.25859700  0.06939100  1
  O  O30  1  0.81046100  0.60949600  0.01189900  1
  O  O31  1  0.41360300  0.56305600  0.76481200  1
  O  O32  1  0.56266600  0.76939500  0.41373200  1
  O  O33  1  0.73313900  0.92873900  0.08910700  1
  O  O34  1  0.97013300  0.20120500  0.37966200  1
  O  O35  1  0.76647500  0.41590800  0.56362600  1
  O  O36  1  0.48259900  0.88719500  0.69322600  1
  O  O37  1  0.93175100  0.09219300  0.73046700  1
  O  O38  1  0.69195400  0.48469100  0.88690500  1
  O  O39  1  0.88643700  0.69176300  0.48677900  1
