# generated using pymatgen
data_K2HgCl4
_symmetry_space_group_name_H-M   'P 1'
_cell_length_a   7.76311225
_cell_length_b   8.90057000
_cell_length_c   11.84819916
_cell_angle_alpha   90.00000000
_cell_angle_beta   90.00000000
_cell_angle_gamma   90.00000000
_symmetry_Int_Tables_number   1
_chemical_formula_structural   K2HgCl4
_chemical_formula_sum   'K8 Hg4 Cl16'
_cell_volume   818.66463832
_cell_formula_units_Z   4
loop_
 _symmetry_equiv_pos_site_id
 _symmetry_equiv_pos_as_xyz
  1  'x, y, z'
loop_
 _atom_site_type_symbol
 _atom_site_label
 _atom_site_symmetry_multiplicity
 _atom_site_fract_x
 _atom_site_fract_y
 _atom_site_fract_z
 _atom_site_occupancy
  K  K0  1  0.90768121  0.00000000  0.32103689  1
  K  K1  1  0.09231879  0.00000000  0.67896311  1
  K  K2  1  0.40768121  0.00000000  0.17896311  1
  K  K3  1  0.59231879  0.00000000  0.82103689  1
  K  K4  1  0.90682164  0.50000000  0.31809984  1
  K  K5  1  0.09317836  0.50000000  0.68190016  1
  K  K6  1  0.40682164  0.50000000  0.18190016  1
  K  K7  1  0.59317836  0.50000000  0.81809984  1
  Hg  Hg8  1  0.50000000  0.25006678  0.50000000  1
  Hg  Hg9  1  0.00000000  0.74993322  -0.00000000  1
  Hg  Hg10  1  0.50000000  0.74993322  0.50000000  1
  Hg  Hg11  1  0.00000000  0.25006678  -0.00000000  1
  Cl  Cl12  1  0.27252192  0.00000000  0.44023961  1
  Cl  Cl13  1  0.72747808  0.00000000  0.55976039  1
  Cl  Cl14  1  0.77252192  0.00000000  0.05976039  1
  Cl  Cl15  1  0.22747808  0.00000000  0.94023961  1
  Cl  Cl16  1  0.27061117  0.50000000  0.44203399  1
  Cl  Cl17  1  0.72938883  0.50000000  0.55796601  1
  Cl  Cl18  1  0.77061117  0.50000000  0.05796601  1
  Cl  Cl19  1  0.22938883  0.50000000  0.94203399  1
  Cl  Cl20  1  0.61984370  0.24954602  0.30730616  1
  Cl  Cl21  1  0.38015630  0.24954602  0.69269384  1
  Cl  Cl22  1  0.11984370  0.75045398  0.19269384  1
  Cl  Cl23  1  0.88015630  0.75045398  0.80730616  1
  Cl  Cl24  1  0.38015630  0.75045398  0.69269384  1
  Cl  Cl25  1  0.61984370  0.75045398  0.30730616  1
  Cl  Cl26  1  0.88015630  0.24954602  0.80730616  1
  Cl  Cl27  1  0.11984370  0.24954602  0.19269384  1
