# generated using pymatgen
data_Hf3Tl10Mo12PbO48
_symmetry_space_group_name_H-M   'P 1'
_cell_length_a   14.35389664
_cell_length_b   14.35389664
_cell_length_c   14.35389690
_cell_angle_alpha   43.72470306
_cell_angle_beta   43.72470304
_cell_angle_gamma   43.72470295
_symmetry_Int_Tables_number   1
_chemical_formula_structural   Hf3Tl10Mo12PbO48
_chemical_formula_sum   'Hf3 Tl10 Mo12 Pb1 O48'
_cell_volume   1282.55805376
_cell_formula_units_Z   1
loop_
 _symmetry_equiv_pos_site_id
 _symmetry_equiv_pos_as_xyz
  1  'x, y, z'
loop_
 _atom_site_type_symbol
 _atom_site_label
 _atom_site_symmetry_multiplicity
 _atom_site_fract_x
 _atom_site_fract_y
 _atom_site_fract_z
 _atom_site_occupancy
  Hf  Hf0  1  -0.00000000  0.00000000  0.00000000  1
  Hf  Hf1  1  0.25009817  0.25009817  0.25009817  1
  Hf  Hf2  1  0.74990183  0.74990183  0.74990183  1
  Tl  Tl3  1  0.14824835  0.14824835  0.14824835  1
  Tl  Tl4  1  0.36711570  0.36711570  0.36711570  1
  Tl  Tl5  1  0.36037494  0.14964454  0.75338359  1
  Tl  Tl6  1  0.75338359  0.36037494  0.14964454  1
  Tl  Tl7  1  0.14964454  0.75338359  0.36037494  1
  Tl  Tl8  1  0.85035546  0.24661641  0.63962506  1
  Tl  Tl9  1  0.24661641  0.63962506  0.85035546  1
  Tl  Tl10  1  0.63962506  0.85035546  0.24661641  1
  Tl  Tl11  1  0.63288430  0.63288430  0.63288430  1
  Tl  Tl12  1  0.85175165  0.85175165  0.85175165  1
  Mo  Mo13  1  0.24619846  0.04702306  0.61307260  1
  Mo  Mo14  1  0.61307260  0.24619846  0.04702306  1
  Mo  Mo15  1  0.04702306  0.61307260  0.24619846  1
  Mo  Mo16  1  0.77214867  0.11171839  0.50766453  1
  Mo  Mo17  1  0.11171839  0.50766453  0.77214867  1
  Mo  Mo18  1  0.50766453  0.77214867  0.11171839  1
  Mo  Mo19  1  0.49233547  0.22785133  0.88828161  1
  Mo  Mo20  1  0.88828161  0.49233547  0.22785133  1
  Mo  Mo21  1  0.22785133  0.88828161  0.49233547  1
  Mo  Mo22  1  0.95297694  0.38692740  0.75380154  1
  Mo  Mo23  1  0.38692740  0.75380154  0.95297694  1
  Mo  Mo24  1  0.75380154  0.95297694  0.38692740  1
  Pb  Pb25  1  0.50000000  0.50000000  0.50000000  1
  O  O26  1  0.28655783  0.04051318  0.33349933  1
  O  O27  1  0.33349933  0.28655783  0.04051318  1
  O  O28  1  0.04051318  0.33349933  0.28655783  1
  O  O29  1  0.08666392  0.02954835  0.79119595  1
  O  O30  1  0.18725254  0.19442242  0.46274727  1
  O  O31  1  0.46274727  0.18725254  0.19442242  1
  O  O32  1  0.79119595  0.08666392  0.02954835  1
  O  O33  1  0.19442242  0.46274727  0.18725254  1
  O  O34  1  0.33829242  0.09123233  0.60264999  1
  O  O35  1  0.60264999  0.33829242  0.09123233  1
  O  O36  1  0.63583152  0.11969384  0.40114581  1
  O  O37  1  0.02954835  0.79119595  0.08666392  1
  O  O38  1  0.09123233  0.60264999  0.33829242  1
  O  O39  1  0.11969384  0.40114581  0.63583152  1
  O  O40  1  0.90823042  0.08106007  0.34588613  1
  O  O41  1  0.40114581  0.63583152  0.11969384  1
  O  O42  1  0.08106007  0.34588613  0.90823042  1
  O  O43  1  0.61901764  0.27959197  0.47090181  1
  O  O44  1  0.44678244  0.16161981  0.86739131  1
  O  O45  1  0.27959197  0.47090181  0.61901764  1
  O  O46  1  0.83838019  0.13260869  0.55321756  1
  O  O47  1  0.47090181  0.61901764  0.27959197  1
  O  O48  1  0.86739131  0.44678244  0.16161981  1
  O  O49  1  0.34588613  0.90823042  0.08106007  1
  O  O50  1  0.65411387  0.09176958  0.91893993  1
  O  O51  1  0.13260869  0.55321756  0.83838019  1
  O  O52  1  0.52909819  0.38098236  0.72040803  1
  O  O53  1  0.16161981  0.86739131  0.44678244  1
  O  O54  1  0.72040803  0.52909819  0.38098236  1
  O  O55  1  0.55321756  0.83838019  0.13260869  1
  O  O56  1  0.38098236  0.72040803  0.52909819  1
  O  O57  1  0.91893993  0.65411387  0.09176958  1
  O  O58  1  0.59885419  0.36416848  0.88030616  1
  O  O59  1  0.09176958  0.91893993  0.65411387  1
  O  O60  1  0.88030616  0.59885419  0.36416848  1
  O  O61  1  0.90876767  0.39735001  0.66170758  1
  O  O62  1  0.97045165  0.20880405  0.91333608  1
  O  O63  1  0.36416848  0.88030616  0.59885419  1
  O  O64  1  0.39735001  0.66170758  0.90876767  1
  O  O65  1  0.66170758  0.90876767  0.39735001  1
  O  O66  1  0.80557758  0.53725273  0.81274746  1
  O  O67  1  0.20880405  0.91333608  0.97045165  1
  O  O68  1  0.53725273  0.81274746  0.80557758  1
  O  O69  1  0.81274746  0.80557758  0.53725273  1
  O  O70  1  0.91333608  0.97045165  0.20880405  1
  O  O71  1  0.95948682  0.66650067  0.71344217  1
  O  O72  1  0.66650067  0.71344217  0.95948682  1
  O  O73  1  0.71344217  0.95948682  0.66650067  1
