# generated using pymatgen
data_Hf2N2O
_symmetry_space_group_name_H-M   'P 1'
_cell_length_a   8.62879212
_cell_length_b   8.67081468
_cell_length_c   8.69200495
_cell_angle_alpha   109.47367735
_cell_angle_beta   109.31979384
_cell_angle_gamma   109.30375864
_symmetry_Int_Tables_number   1
_chemical_formula_structural   Hf2N2O
_chemical_formula_sum   'Hf16 N16 O8'
_cell_volume   502.56425518
_cell_formula_units_Z   8
loop_
 _symmetry_equiv_pos_site_id
 _symmetry_equiv_pos_as_xyz
  1  'x, y, z'
loop_
 _atom_site_type_symbol
 _atom_site_label
 _atom_site_symmetry_multiplicity
 _atom_site_fract_x
 _atom_site_fract_y
 _atom_site_fract_z
 _atom_site_occupancy
  Hf  Hf0  1  0.98995031  0.00122417  0.49162885  1
  Hf  Hf1  1  0.25179485  0.70766169  0.46511895  1
  Hf  Hf2  1  0.29115918  0.04021142  0.25061971  1
  Hf  Hf3  1  0.77659992  0.52748685  0.24939228  1
  Hf  Hf4  1  0.74220058  0.78752298  0.03273247  1
  Hf  Hf5  1  0.03254576  0.25920075  0.28579171  1
  Hf  Hf6  1  0.46993153  0.74807481  0.21489981  1
  Hf  Hf7  1  0.49020765  0.49184088  0.48983851  1
  Hf  Hf8  1  0.50134948  0.00024530  0.01092844  1
  Hf  Hf9  1  0.00500888  0.49169525  0.99571832  1
  Hf  Hf10  1  0.96735689  0.74173102  0.71451778  1
  Hf  Hf11  1  0.54159481  0.25279822  0.78494906  1
  Hf  Hf12  1  0.25608412  0.21461162  0.97287642  1
  Hf  Hf13  1  0.71375297  0.96874673  0.74969865  1
  Hf  Hf14  1  0.21174393  0.46582966  0.75067105  1
  Hf  Hf15  1  0.74797452  0.28547687  0.53496785  1
  N  N16  1  0.73379187  0.76269689  0.27222272  1
  N  N17  1  0.98873173  0.46343003  0.23071506  1
  N  N18  1  0.53346943  0.27509935  0.04029575  1
  N  N19  1  0.54294854  0.03221560  0.27180229  1
  N  N20  1  0.51190540  0.74416533  0.46972278  1
  N  N21  1  0.22511469  0.95489550  0.96432299  1
  N  N22  1  0.26025976  0.27192913  0.22849672  1
  N  N23  1  0.73068970  0.49291432  0.45659150  1
  N  N24  1  0.48504358  0.26314307  0.53818961  1
  N  N25  1  0.77362696  0.22710399  0.76821484  1
  N  N26  1  0.77497472  0.04222527  0.03078122  1
  N  N27  1  0.46810643  0.72613222  0.95120326  1
  N  N28  1  0.23842014  0.46426667  0.01133528  1
  N  N29  1  0.01214177  0.54624695  0.77517574  1
  N  N30  1  0.27369495  0.51650677  0.54862121  1
  N  N31  1  0.95461039  0.22207871  0.48797461  1
  O  O32  1  0.96000770  0.00573864  0.72929227  1
  O  O33  1  0.45083433  0.96723768  0.72452458  1
  O  O34  1  0.05851966  0.78523132  0.52438345  1
  O  O35  1  0.03922590  0.98534780  0.26770587  1
  O  O36  1  0.22115620  0.77330942  0.23544991  1
  O  O37  1  0.74907733  0.73039752  0.77722109  1
  O  O38  1  0.75827338  0.53597703  0.97776627  1
  O  O39  1  0.26612503  0.22735354  0.72363409  1
