# generated using pymatgen
data_Cd(CoO2)2
_symmetry_space_group_name_H-M   'P 1'
_cell_length_a   4.87401760
_cell_length_b   5.62265629
_cell_length_c   10.84153747
_cell_angle_alpha   89.99974734
_cell_angle_beta   90.00260225
_cell_angle_gamma   90.00001040
_symmetry_Int_Tables_number   1
_chemical_formula_structural   Cd(CoO2)2
_chemical_formula_sum   'Cd4 Co8 O16'
_cell_volume   297.11152886
_cell_formula_units_Z   4
loop_
 _symmetry_equiv_pos_site_id
 _symmetry_equiv_pos_as_xyz
  1  'x, y, z'
loop_
 _atom_site_type_symbol
 _atom_site_label
 _atom_site_symmetry_multiplicity
 _atom_site_fract_x
 _atom_site_fract_y
 _atom_site_fract_z
 _atom_site_occupancy
  Cd  Cd0  1  0.04025369  0.74999943  0.24999937  1
  Cd  Cd1  1  0.36560015  0.75000315  0.74999640  1
  Cd  Cd2  1  0.63440859  0.24999721  0.25000350  1
  Cd  Cd3  1  0.95974884  0.25000082  0.75000080  1
  Co  Co4  1  0.00345478  0.25000020  0.00572241  1
  Co  Co5  1  0.99654250  0.74999964  0.99429435  1
  Co  Co6  1  0.00345762  0.25000109  0.49427893  1
  Co  Co7  1  0.99654117  0.74999932  0.50570551  1
  Co  Co8  1  0.49999970  0.00000045  0.00001030  1
  Co  Co9  1  0.50000110  -0.00000017  0.49998984  1
  Co  Co10  1  0.50000027  0.49999941  0.00001057  1
  Co  Co11  1  0.50000106  0.50000039  0.49998976  1
  O  O12  1  0.16678560  0.99948965  0.90416069  1
  O  O13  1  0.16680356  0.99948792  0.59583815  1
  O  O14  1  0.16680330  0.50051040  0.59583829  1
  O  O15  1  0.16678627  0.50051171  0.90416083  1
  O  O16  1  0.34066545  0.24999941  0.09242044  1
  O  O17  1  0.34064518  0.25000053  0.40757765  1
  O  O18  1  0.32606594  0.74999893  0.08815549  1
  O  O19  1  0.32604935  0.75000085  0.41184844  1
  O  O20  1  0.67396017  0.24999905  0.58812682  1
  O  O21  1  0.67393405  0.25000119  0.91187231  1
  O  O22  1  0.65934284  0.74999955  0.59239710  1
  O  O23  1  0.65932420  0.75000028  0.90760339  1
  O  O24  1  0.83321458  0.00051490  0.09586041  1
  O  O25  1  0.83319742  0.00051598  0.40413860  1
  O  O26  1  0.83321467  0.49948301  0.09586084  1
  O  O27  1  0.83319796  0.49948371  0.40413881  1
