# generated using pymatgen
data_Na2AgSb
_symmetry_space_group_name_H-M   'P 1'
_cell_length_a   5.76311298
_cell_length_b   6.06089945
_cell_length_c   6.06089872
_cell_angle_alpha   99.00833473
_cell_angle_beta   90.00000000
_cell_angle_gamma   90.00000000
_symmetry_Int_Tables_number   1
_chemical_formula_structural   Na2AgSb
_chemical_formula_sum   'Na4 Ag2 Sb2'
_cell_volume   209.09380030
_cell_formula_units_Z   2
loop_
 _symmetry_equiv_pos_site_id
 _symmetry_equiv_pos_as_xyz
  1  'x, y, z'
loop_
 _atom_site_type_symbol
 _atom_site_label
 _atom_site_symmetry_multiplicity
 _atom_site_fract_x
 _atom_site_fract_y
 _atom_site_fract_z
 _atom_site_occupancy
  Na  Na0  1  0.25000000  0.67226072  0.02747186  1
  Na  Na1  1  0.75000000  0.32773928  0.97252814  1
  Na  Na2  1  0.25000000  0.02747186  0.67226072  1
  Na  Na3  1  0.75000000  0.97252814  0.32773928  1
  Ag  Ag4  1  0.00000000  0.50000000  0.50000000  1
  Ag  Ag5  1  0.50000000  0.50000000  0.50000000  1
  Sb  Sb6  1  0.25000000  0.20920321  0.20920321  1
  Sb  Sb7  1  0.75000000  0.79079779  0.79079779  1
