# generated using pymatgen
data_Na5NiHO4
_symmetry_space_group_name_H-M   'P 1'
_cell_length_a   9.85845293
_cell_length_b   10.16765688
_cell_length_c   11.82671341
_cell_angle_alpha   90.00000000
_cell_angle_beta   90.00000000
_cell_angle_gamma   90.00000000
_symmetry_Int_Tables_number   1
_chemical_formula_structural   Na5NiHO4
_chemical_formula_sum   'Na40 Ni8 H8 O32'
_cell_volume   1185.47860964
_cell_formula_units_Z   8
loop_
 _symmetry_equiv_pos_site_id
 _symmetry_equiv_pos_as_xyz
  1  'x, y, z'
loop_
 _atom_site_type_symbol
 _atom_site_label
 _atom_site_symmetry_multiplicity
 _atom_site_fract_x
 _atom_site_fract_y
 _atom_site_fract_z
 _atom_site_occupancy
  Na  Na0  1  0.98421069  0.59227562  0.21299581  1
  Na  Na1  1  0.98421069  0.90772438  0.21299581  1
  Na  Na2  1  0.07162979  0.06744517  0.40890093  1
  Na  Na3  1  0.07162979  0.43255483  0.40890093  1
  Na  Na4  1  0.08008226  0.75000000  0.44543976  1
  Na  Na5  1  0.11491644  0.25000000  0.98256613  1
  Na  Na6  1  0.13551240  0.56563814  0.99148612  1
  Na  Na7  1  0.13551240  0.93436186  0.99148612  1
  Na  Na8  1  0.21937109  0.58281147  0.68042145  1
  Na  Na9  1  0.21937109  0.91718853  0.68042145  1
  Na  Na10  1  0.28062891  0.08281147  0.18042145  1
  Na  Na11  1  0.28062891  0.41718853  0.18042145  1
  Na  Na12  1  0.36448760  0.06563814  0.49148612  1
  Na  Na13  1  0.36448760  0.43436186  0.49148612  1
  Na  Na14  1  0.38508356  0.75000000  0.48256613  1
  Na  Na15  1  0.41991774  0.25000000  0.94543976  1
  Na  Na16  1  0.42837021  0.56744517  0.90890093  1
  Na  Na17  1  0.42837021  0.93255483  0.90890093  1
  Na  Na18  1  0.51578931  0.09227562  0.71299581  1
  Na  Na19  1  0.51578931  0.40772438  0.71299581  1
  Na  Na20  1  0.48421069  0.59227562  0.28700419  1
  Na  Na21  1  0.48421069  0.90772438  0.28700419  1
  Na  Na22  1  0.57162979  0.06744517  0.09109907  1
  Na  Na23  1  0.57162979  0.43255483  0.09109907  1
  Na  Na24  1  0.58008226  0.75000000  0.05456024  1
  Na  Na25  1  0.61491644  0.25000000  0.51743387  1
  Na  Na26  1  0.63551240  0.56563814  0.50851388  1
  Na  Na27  1  0.63551240  0.93436186  0.50851388  1
  Na  Na28  1  0.71937109  0.58281147  0.81957855  1
  Na  Na29  1  0.71937109  0.91718853  0.81957855  1
  Na  Na30  1  0.78062891  0.08281147  0.31957855  1
  Na  Na31  1  0.78062891  0.41718853  0.31957855  1
  Na  Na32  1  0.86448760  0.06563814  0.00851388  1
  Na  Na33  1  0.86448760  0.43436186  0.00851388  1
  Na  Na34  1  0.88508356  0.75000000  0.01743387  1
  Na  Na35  1  0.91991774  0.25000000  0.55456024  1
  Na  Na36  1  0.92837021  0.93255483  0.59109907  1
  Na  Na37  1  0.92837021  0.56744517  0.59109907  1
  Na  Na38  1  0.01578931  0.09227562  0.78700419  1
  Na  Na39  1  0.01578931  0.40772438  0.78700419  1
  Ni  Ni40  1  0.01008372  0.25000000  0.20616700  1
  Ni  Ni41  1  0.20502440  0.25000000  0.61846806  1
  Ni  Ni42  1  0.29497560  0.75000000  0.11846806  1
  Ni  Ni43  1  0.48991628  0.75000000  0.70616700  1
  Ni  Ni44  1  0.51008372  0.25000000  0.29383300  1
  Ni  Ni45  1  0.70502440  0.25000000  0.88153194  1
  Ni  Ni46  1  0.79497560  0.75000000  0.38153194  1
  Ni  Ni47  1  0.98991628  0.75000000  0.79383300  1
  H  H48  1  0.23499689  0.63039652  0.30338263  1
  H  H49  1  0.23499689  0.86960348  0.30338263  1
  H  H50  1  0.26500311  0.13039652  0.80338263  1
  H  H51  1  0.26500311  0.36960348  0.80338263  1
  H  H52  1  0.73499689  0.63039652  0.19661737  1
  H  H53  1  0.73499689  0.86960348  0.19661737  1
  H  H54  1  0.76500311  0.13039652  0.69661737  1
  H  H55  1  0.76500311  0.36960348  0.69661737  1
  O  O56  1  0.06194439  0.75000000  0.64767660  1
  O  O57  1  0.05571412  0.40284867  0.12817999  1
  O  O58  1  0.05571412  0.09715133  0.12817999  1
  O  O59  1  0.10349185  0.40393537  0.60310744  1
  O  O60  1  0.10349185  0.09606463  0.60310744  1
  O  O61  1  0.10567023  0.75000000  0.11831065  1
  O  O62  1  0.24960812  0.08346049  0.87422005  1
  O  O63  1  0.24960812  0.41653951  0.87422005  1
  O  O64  1  0.25039188  0.58346049  0.37422005  1
  O  O65  1  0.25039188  0.91653951  0.37422005  1
  O  O66  1  0.39432977  0.25000000  0.61831065  1
  O  O67  1  0.39650815  0.59606463  0.10310744  1
  O  O68  1  0.39650815  0.90393537  0.10310744  1
  O  O69  1  0.44428588  0.59715133  0.62817999  1
  O  O70  1  0.44428588  0.90284867  0.62817999  1
  O  O71  1  0.43805561  0.25000000  0.14767660  1
  O  O72  1  0.56194439  0.75000000  0.85232340  1
  O  O73  1  0.55571412  0.09715133  0.37182001  1
  O  O74  1  0.55571412  0.40284867  0.37182001  1
  O  O75  1  0.60349185  0.09606463  0.89689256  1
  O  O76  1  0.60349185  0.40393537  0.89689256  1
  O  O77  1  0.60567023  0.75000000  0.38168935  1
  O  O78  1  0.74960812  0.08346049  0.62577995  1
  O  O79  1  0.74960812  0.41653951  0.62577995  1
  O  O80  1  0.75039188  0.58346049  0.12577995  1
  O  O81  1  0.75039188  0.91653951  0.12577995  1
  O  O82  1  0.89432977  0.25000000  0.88168935  1
  O  O83  1  0.89650815  0.90393537  0.39689256  1
  O  O84  1  0.89650815  0.59606463  0.39689256  1
  O  O85  1  0.94428588  0.90284867  0.87182001  1
  O  O86  1  0.94428588  0.59715133  0.87182001  1
  O  O87  1  0.93805561  0.25000000  0.35232340  1
