# generated using pymatgen
data_K3Cu3P2
_symmetry_space_group_name_H-M   'P 1'
_cell_length_a   7.41985542
_cell_length_b   7.41985581
_cell_length_c   7.41985581
_cell_angle_alpha   44.82627222
_cell_angle_beta   44.82626881
_cell_angle_gamma   44.82626771
_symmetry_Int_Tables_number   1
_chemical_formula_structural   K3Cu3P2
_chemical_formula_sum   'K3 Cu3 P2'
_cell_volume   184.70655395
_cell_formula_units_Z   1
loop_
 _symmetry_equiv_pos_site_id
 _symmetry_equiv_pos_as_xyz
  1  'x, y, z'
loop_
 _atom_site_type_symbol
 _atom_site_label
 _atom_site_symmetry_multiplicity
 _atom_site_fract_x
 _atom_site_fract_y
 _atom_site_fract_z
 _atom_site_occupancy
  K  K0  1  0.90814348  0.90814348  0.90814348  1
  K  K1  1  0.50000000  0.50000000  0.50000000  1
  K  K2  1  0.09185652  0.09185652  0.09185652  1
  Cu  Cu3  1  0.50000000  0.00000000  0.50000000  1
  Cu  Cu4  1  0.50000000  0.50000000  -0.00000000  1
  Cu  Cu5  1  -0.00000000  0.50000000  0.50000000  1
  P  P6  1  0.25702121  0.25702121  0.25702121  1
  P  P7  1  0.74297879  0.74297879  0.74297879  1
