# generated using pymatgen
data_Cd7P10
_symmetry_space_group_name_H-M   'P 1'
_cell_length_a   18.18194533
_cell_length_b   14.15424422
_cell_length_c   11.88464377
_cell_angle_alpha   88.12561957
_cell_angle_beta   51.08342529
_cell_angle_gamma   40.79095514
_symmetry_Int_Tables_number   1
_chemical_formula_structural   Cd7P10
_chemical_formula_sum   'Cd14 P20'
_cell_volume   762.94458974
_cell_formula_units_Z   2
loop_
 _symmetry_equiv_pos_site_id
 _symmetry_equiv_pos_as_xyz
  1  'x, y, z'
loop_
 _atom_site_type_symbol
 _atom_site_label
 _atom_site_symmetry_multiplicity
 _atom_site_fract_x
 _atom_site_fract_y
 _atom_site_fract_z
 _atom_site_occupancy
  Cd  Cd0  1  0.57282300  0.52655100  0.93261000  1
  Cd  Cd1  1  0.98204200  0.92385000  0.51429200  1
  Cd  Cd2  1  0.32401500  0.26995200  0.67228000  1
  Cd  Cd3  1  0.72319600  0.68039800  0.28352900  1
  Cd  Cd4  1  0.19410600  0.97000600  0.56519200  1
  Cd  Cd5  1  0.26023700  0.57469900  0.98183100  1
  Cd  Cd6  1  0.68512600  0.98207800  0.05354300  1
  Cd  Cd7  1  0.27417600  0.06384800  0.99044700  1
  Cd  Cd8  1  0.93193900  0.49072100  0.83313700  1
  Cd  Cd9  1  0.75526800  0.81767500  0.47735800  1
  Cd  Cd10  1  0.42602600  0.49742000  0.31273900  1
  Cd  Cd11  1  0.77546600  0.29800200  0.49009800  1
  Cd  Cd12  1  0.24654500  0.25493300  0.25361700  1
  Cd  Cd13  1  0.00520700  0.99332000  0.99866300  1
  P  P14  1  0.66949300  0.46054400  0.24449000  1
  P  P15  1  0.63020700  0.24394300  0.45439200  1
  P  P16  1  0.00540700  0.62227100  0.58151700  1
  P  P17  1  0.79466600  0.57532900  0.62272000  1
  P  P18  1  0.98363700  0.27995900  0.92696200  1
  P  P19  1  0.81344200  0.92919900  0.27201900  1
  P  P20  1  0.32946800  0.42933900  0.25984700  1
  P  P21  1  0.98337000  0.25670000  0.43112900  1
  P  P22  1  0.88783000  0.11645400  0.78130200  1
  P  P23  1  0.22676500  0.76768400  0.11086200  1
  P  P24  1  0.46632000  0.03564900  0.36946200  1
  P  P25  1  0.14296000  0.35081300  0.02214900  1
  P  P26  1  0.32299200  0.90575000  0.24479000  1
  P  P27  1  0.52356900  0.24427800  0.90485000  1
  P  P28  1  0.48220500  0.64938400  0.59010800  1
  P  P29  1  0.26544900  0.60533100  0.66434500  1
  P  P30  1  0.65204600  0.97362100  0.77785200  1
  P  P31  1  0.59117500  0.78113400  0.97736900  1
  P  P32  1  0.33898300  0.93035600  0.72486900  1
  P  P33  1  0.00851700  0.72214200  0.92125200  1
