# generated using pymatgen
data_Na2SnO2
_symmetry_space_group_name_H-M   'P 1'
_cell_length_a   5.73947944
_cell_length_b   6.74726154
_cell_length_c   16.75978064
_cell_angle_alpha   90.00000000
_cell_angle_beta   90.00000000
_cell_angle_gamma   90.00000000
_symmetry_Int_Tables_number   1
_chemical_formula_structural   Na2SnO2
_chemical_formula_sum   'Na16 Sn8 O16'
_cell_volume   649.03539163
_cell_formula_units_Z   8
loop_
 _symmetry_equiv_pos_site_id
 _symmetry_equiv_pos_as_xyz
  1  'x, y, z'
loop_
 _atom_site_type_symbol
 _atom_site_label
 _atom_site_symmetry_multiplicity
 _atom_site_fract_x
 _atom_site_fract_y
 _atom_site_fract_z
 _atom_site_occupancy
  Na  Na0  1  0.25000000  0.11222452  0.00000000  1
  Na  Na1  1  0.25000000  0.62981430  0.00000000  1
  Na  Na2  1  0.75000000  0.37018570  0.00000000  1
  Na  Na3  1  0.75000000  0.88777548  0.00000000  1
  Na  Na4  1  0.58118324  0.12572087  0.14812415  1
  Na  Na5  1  0.08118324  0.87427913  0.14812415  1
  Na  Na6  1  0.08118324  0.37427913  0.35187585  1
  Na  Na7  1  0.58118324  0.62572087  0.35187585  1
  Na  Na8  1  0.25000000  0.12981430  0.50000000  1
  Na  Na9  1  0.75000000  0.38777548  0.50000000  1
  Na  Na10  1  0.25000000  0.61222452  0.50000000  1
  Na  Na11  1  0.75000000  0.87018570  0.50000000  1
  Na  Na12  1  0.41881676  0.37427913  0.64812415  1
  Na  Na13  1  0.91881676  0.62572087  0.64812415  1
  Na  Na14  1  0.91881676  0.12572087  0.85187585  1
  Na  Na15  1  0.41881676  0.87427913  0.85187585  1
  Sn  Sn16  1  0.06813995  0.36677017  0.15789155  1
  Sn  Sn17  1  0.56813995  0.63322983  0.15789155  1
  Sn  Sn18  1  0.56813995  0.13322983  0.34210845  1
  Sn  Sn19  1  0.06813995  0.86677017  0.34210845  1
  Sn  Sn20  1  0.93186005  0.13322983  0.65789155  1
  Sn  Sn21  1  0.43186005  0.86677017  0.65789155  1
  Sn  Sn22  1  0.43186005  0.36677017  0.84210845  1
  Sn  Sn23  1  0.93186005  0.63322983  0.84210845  1
  O  O24  1  0.43985971  0.85016980  0.08782067  1
  O  O25  1  0.93985971  0.14983020  0.08782067  1
  O  O26  1  0.38754497  0.40363616  0.09705775  1
  O  O27  1  0.88754497  0.59636384  0.09705775  1
  O  O28  1  0.88754497  0.09636384  0.40294225  1
  O  O29  1  0.38754497  0.90363616  0.40294225  1
  O  O30  1  0.43985971  0.35016980  0.41217933  1
  O  O31  1  0.93985971  0.64983020  0.41217933  1
  O  O32  1  0.06014029  0.35016980  0.58782067  1
  O  O33  1  0.56014029  0.64983020  0.58782067  1
  O  O34  1  0.61245503  0.09636384  0.59705775  1
  O  O35  1  0.11245503  0.90363616  0.59705775  1
  O  O36  1  0.11245503  0.40363616  0.90294225  1
  O  O37  1  0.61245503  0.59636384  0.90294225  1
  O  O38  1  0.56014029  0.14983020  0.91217933  1
  O  O39  1  0.06014029  0.85016980  0.91217933  1
