# generated using pymatgen
data_FeOF
_symmetry_space_group_name_H-M   'P 1'
_cell_length_a   4.67578977
_cell_length_b   4.67155531
_cell_length_c   3.06963172
_cell_angle_alpha   90.00000000
_cell_angle_beta   90.00000000
_cell_angle_gamma   90.00002881
_symmetry_Int_Tables_number   1
_chemical_formula_structural   FeOF
_chemical_formula_sum   'Fe2 O2 F2'
_cell_volume   67.05061190
_cell_formula_units_Z   2
loop_
 _symmetry_equiv_pos_site_id
 _symmetry_equiv_pos_as_xyz
  1  'x, y, z'
loop_
 _atom_site_type_symbol
 _atom_site_label
 _atom_site_symmetry_multiplicity
 _atom_site_fract_x
 _atom_site_fract_y
 _atom_site_fract_z
 _atom_site_occupancy
  Fe  Fe0  1  0.99270417  0.03682575  -0.00000000  1
  Fe  Fe1  1  0.49270317  0.46317425  0.50000000  1
  O  O2  1  0.30316989  0.30934646  -0.00000000  1
  O  O3  1  0.80317089  0.19065254  0.50000000  1
  F  F4  1  0.20412594  0.80486617  0.50000000  1
  F  F5  1  0.70412694  0.69513483  -0.00000000  1
