# generated using pymatgen
data_CrH14N4Cl3O
_symmetry_space_group_name_H-M   'P 1'
_cell_length_a   6.53312636
_cell_length_b   10.58027250
_cell_length_c   6.58913239
_cell_angle_alpha   90.00000000
_cell_angle_beta   94.26001235
_cell_angle_gamma   90.00000000
_symmetry_Int_Tables_number   1
_chemical_formula_structural   CrH14N4Cl3O
_chemical_formula_sum   'Cr2 H28 N8 Cl6 O2'
_cell_volume   454.19737926
_cell_formula_units_Z   2
loop_
 _symmetry_equiv_pos_site_id
 _symmetry_equiv_pos_as_xyz
  1  'x, y, z'
loop_
 _atom_site_type_symbol
 _atom_site_label
 _atom_site_symmetry_multiplicity
 _atom_site_fract_x
 _atom_site_fract_y
 _atom_site_fract_z
 _atom_site_occupancy
  Cr  Cr0  1  0.17092915  0.25000000  0.22604038  1
  Cr  Cr1  1  0.82910527  0.75000000  0.77392802  1
  H  H2  1  0.21826340  0.02090751  0.08665082  1
  H  H3  1  0.78181384  0.52090558  0.91331530  1
  H  H4  1  0.78181384  0.97909442  0.91331530  1
  H  H5  1  0.21826340  0.47909249  0.08665082  1
  H  H6  1  0.03439269  0.01623683  0.24286943  1
  H  H7  1  0.96573833  0.51623818  0.75708981  1
  H  H8  1  0.96573833  0.98376182  0.75708981  1
  H  H9  1  0.03439269  0.48376317  0.24286943  1
  H  H10  1  0.27772797  0.01619020  0.33248912  1
  H  H11  1  0.72240634  0.51619252  0.66744362  1
  H  H12  1  0.72240634  0.98380748  0.66744362  1
  H  H13  1  0.27772797  0.48380980  0.33248912  1
  H  H14  1  0.83925406  0.32759409  0.39240694  1
  H  H15  1  0.16059298  0.82761465  0.60764646  1
  H  H16  1  0.16059298  0.67238535  0.60764646  1
  H  H17  1  0.83925406  0.17240591  0.39240694  1
  H  H18  1  0.97584353  0.25000000  0.57206165  1
  H  H19  1  0.02401923  0.75000000  0.42800170  1
  H  H20  1  0.41072648  0.32769631  0.95058232  1
  H  H21  1  0.58910834  0.82768197  0.04943104  1
  H  H22  1  0.58910834  0.67231803  0.04943104  1
  H  H23  1  0.41072648  0.17230369  0.95058232  1
  H  H24  1  0.55340722  0.25000000  0.12451687  1
  H  H25  1  0.44653266  0.75000000  0.87546229  1
  H  H26  1  0.36613202  0.32608491  0.56070338  1
  H  H27  1  0.63383773  0.82608265  0.43932313  1
  H  H28  1  0.63383773  0.67391735  0.43932313  1
  H  H29  1  0.36613202  0.17391509  0.56070338  1
  N  N30  1  0.17621787  0.05373934  0.22344342  1
  N  N31  1  0.82392430  0.55373026  0.77652143  1
  N  N32  1  0.82392430  0.94626974  0.77652143  1
  N  N33  1  0.17621787  0.44626066  0.22344342  1
  N  N34  1  0.93126244  0.25000000  0.41995945  1
  N  N35  1  0.06863822  0.75000000  0.58008800  1
  N  N36  1  0.41460819  0.25000000  0.04353352  1
  N  N37  1  0.58529193  0.75000000  0.95650492  1
  Cl  Cl38  1  0.93432558  0.25000000  0.94823643  1
  Cl  Cl39  1  0.06566579  0.75000000  0.05176354  1
  Cl  Cl40  1  0.67834899  0.98642837  0.27899874  1
  Cl  Cl41  1  0.32172411  0.48643838  0.72102379  1
  Cl  Cl42  1  0.32172411  0.01356162  0.72102379  1
  Cl  Cl43  1  0.67834899  0.51357163  0.27899874  1
  O  O44  1  0.37416329  0.25000000  0.47289071  1
  O  O45  1  0.62578859  0.75000000  0.52713500  1
