# generated using pymatgen
data_Li13V24O52
_symmetry_space_group_name_H-M   'P 1'
_cell_length_a   11.68691225
_cell_length_b   8.52092076
_cell_length_c   11.17317259
_cell_angle_alpha   97.83840802
_cell_angle_beta   69.86700822
_cell_angle_gamma   76.39282154
_symmetry_Int_Tables_number   1
_chemical_formula_structural   Li13V24O52
_chemical_formula_sum   'Li13 V24 O52'
_cell_volume   986.12773533
_cell_formula_units_Z   1
loop_
 _symmetry_equiv_pos_site_id
 _symmetry_equiv_pos_as_xyz
  1  'x, y, z'
loop_
 _atom_site_type_symbol
 _atom_site_label
 _atom_site_symmetry_multiplicity
 _atom_site_fract_x
 _atom_site_fract_y
 _atom_site_fract_z
 _atom_site_occupancy
  Li  Li0  1  0.15360800  0.87976400  0.58870500  1
  Li  Li1  1  0.00278800  0.99749500  0.99983700  1
  Li  Li2  1  0.25032400  0.24771800  0.99987800  1
  Li  Li3  1  0.49697400  0.50124000  0.00054600  1
  Li  Li4  1  0.75693100  0.74703300  0.98165200  1
  Li  Li5  1  0.34488100  0.61993900  0.41340900  1
  Li  Li6  1  0.09410500  0.37113800  0.41318200  1
  Li  Li7  1  0.59518200  0.86972900  0.41636100  1
  Li  Li8  1  0.54716200  0.02508000  0.19112000  1
  Li  Li9  1  0.65471000  0.38050400  0.58874900  1
  Li  Li10  1  0.90420400  0.63046300  0.58751200  1
  Li  Li11  1  0.40489500  0.12951800  0.58698200  1
  Li  Li12  1  0.84686600  0.11903800  0.41328000  1
  V  V13  1  0.11775100  0.68068700  0.36540200  1
  V  V14  1  0.36342300  0.93052200  0.37062100  1
  V  V15  1  0.50629500  0.82014900  0.99621100  1
  V  V16  1  0.00887500  0.31917900  0.00270600  1
  V  V17  1  0.25357400  0.56779700  0.00160000  1
  V  V18  1  0.24592900  0.92253900  0.99845300  1
  V  V19  1  0.13009900  0.57057000  0.63544600  1
  V  V20  1  0.38104200  0.82017000  0.63492400  1
  V  V21  1  0.60617300  0.53518700  0.36504100  1
  V  V22  1  0.85755900  0.78271200  0.36378000  1
  V  V23  1  0.10802500  0.03323500  0.36351800  1
  V  V24  1  0.35375300  0.28640100  0.37038700  1
  V  V25  1  0.14071100  0.21818200  0.63628000  1
  V  V26  1  0.64355400  0.71631800  0.63437700  1
  V  V27  1  0.39197300  0.46833900  0.63587500  1
  V  V28  1  0.89285500  0.96853600  0.63522300  1
  V  V29  1  0.61947100  0.18444500  0.37072300  1
  V  V30  1  0.86909100  0.43033300  0.36594800  1
  V  V31  1  0.76003400  0.07610100  0.99815500  1
  V  V32  1  0.49608700  0.17876100  0.99749900  1
  V  V33  1  0.74452200  0.42933500  0.00111700  1
  V  V34  1  0.99081200  0.67820200  0.99876500  1
  V  V35  1  0.63170600  0.06949900  0.63428500  1
  V  V36  1  0.88220600  0.31830000  0.63447600  1
  O  O37  1  0.16438000  0.99409100  0.19852100  1
  O  O38  1  0.62035800  0.96172300  0.00531300  1
  O  O39  1  0.11346700  0.45586700  0.00013500  1
  O  O40  1  0.36925300  0.71946200  0.99920700  1
  O  O41  1  0.22100200  0.83320100  0.39199900  1
  O  O42  1  0.03157300  0.75268900  0.58323200  1
  O  O43  1  0.18322800  0.62495300  0.19850300  1
  O  O44  1  0.43642200  0.87875000  0.20196400  1
  O  O45  1  0.31333000  0.87617700  0.80177200  1
  O  O46  1  0.06398000  0.62440800  0.80174500  1
  O  O47  1  0.12583700  0.12367800  0.00081600  1
  O  O48  1  0.37391800  0.37305500  0.00204100  1
  O  O49  1  0.62116800  0.63067100  0.99861700  1
  O  O50  1  0.87611600  0.87583000  0.99918600  1
  O  O51  1  0.71850700  0.99802300  0.41722200  1
  O  O52  1  0.46693500  0.74826400  0.41677900  1
  O  O53  1  0.21793400  0.49765100  0.41622800  1
  O  O54  1  0.27839300  0.66556100  0.60857600  1
  O  O55  1  0.02900100  0.41719800  0.60805500  1
  O  O56  1  0.52910900  0.91490500  0.60788800  1
  O  O57  1  0.12129100  0.77376100  0.00003200  1
  O  O58  1  0.41715300  0.23861100  0.20327000  1
  O  O59  1  0.91223700  0.74451200  0.19947200  1
  O  O60  1  0.66158100  0.49770600  0.20063700  1
  O  O61  1  0.02212500  0.09868300  0.59555400  1
  O  O62  1  0.77118000  0.84994900  0.59589200  1
  O  O63  1  0.27174400  0.34871200  0.59340500  1
  O  O64  1  0.52023800  0.60053600  0.59615500  1
  O  O65  1  0.22715200  0.15194900  0.40560700  1
  O  O66  1  0.47830800  0.40159300  0.40562500  1
  O  O67  1  0.97906300  0.90039000  0.40382900  1
  O  O68  1  0.72869500  0.65102400  0.40507700  1
  O  O69  1  0.33551400  0.50295100  0.80114400  1
  O  O70  1  0.08830000  0.25395000  0.80004700  1
  O  O71  1  0.58694700  0.75459500  0.79958800  1
  O  O72  1  0.87887300  0.22385700  0.99961100  1
  O  O73  1  0.47402000  0.08090300  0.38865900  1
  O  O74  1  0.72078600  0.33556500  0.39219900  1
  O  O75  1  0.97020200  0.58495800  0.39230300  1
  O  O76  1  0.28259600  0.00291700  0.58096400  1
  O  O77  1  0.53193900  0.25252600  0.58084800  1
  O  O78  1  0.78217000  0.50197600  0.58306600  1
  O  O79  1  0.68228900  0.12375200  0.20101400  1
  O  O80  1  0.93543700  0.37435200  0.19943900  1
  O  O81  1  0.56426500  0.12713300  0.80025600  1
  O  O82  1  0.81557800  0.37620400  0.79962200  1
  O  O83  1  0.96877800  0.24672000  0.41648100  1
  O  O84  1  0.77910500  0.16565300  0.60744600  1
  O  O85  1  0.88000200  0.54462900  0.00069900  1
  O  O86  1  0.63406800  0.28296300  0.99988600  1
  O  O87  1  0.39036900  0.02355400  0.99928900  1
  O  O88  1  0.83838800  0.00654500  0.80046000  1
