# generated using pymatgen
data_K2Mn3V2(HO5)2
_symmetry_space_group_name_H-M   'P 1'
_cell_length_a   6.09534879
_cell_length_b   8.13823906
_cell_length_c   10.68841674
_cell_angle_alpha   76.05143941
_cell_angle_beta   90.00246293
_cell_angle_gamma   111.99576094
_symmetry_Int_Tables_number   1
_chemical_formula_structural   K2Mn3V2(HO5)2
_chemical_formula_sum   'K4 Mn6 V4 H4 O20'
_cell_volume   474.70918720
_cell_formula_units_Z   2
loop_
 _symmetry_equiv_pos_site_id
 _symmetry_equiv_pos_as_xyz
  1  'x, y, z'
loop_
 _atom_site_type_symbol
 _atom_site_label
 _atom_site_symmetry_multiplicity
 _atom_site_fract_x
 _atom_site_fract_y
 _atom_site_fract_z
 _atom_site_occupancy
  K  K0  1  0.23567261  0.47144773  0.35176014  1
  K  K1  1  0.23705808  0.47396733  0.85202159  1
  K  K2  1  0.76477547  0.52855216  0.14827895  1
  K  K3  1  0.76331665  0.52607395  0.64799620  1
  Mn  Mn4  1  0.26137383  0.00006413  0.74995284  1
  Mn  Mn5  1  0.73536411  0.99997307  0.24997146  1
  Mn  Mn6  1  0.73842101  0.00000438  0.75003412  1
  Mn  Mn7  1  -0.00059779  0.00094307  0.99926262  1
  Mn  Mn8  1  0.99827995  0.99893665  0.50069345  1
  Mn  Mn9  1  0.26907603  0.00004833  0.25000502  1
  V  V10  1  0.37878708  0.75964929  0.04533477  1
  V  V11  1  0.61922618  0.24034319  0.45468551  1
  V  V12  1  0.37869876  0.75726082  0.54591731  1
  V  V13  1  0.62159920  0.24274928  0.95409912  1
  H  H14  1  0.85996110  0.71976870  0.37697839  1
  H  H15  1  0.85882157  0.71773234  0.87744460  1
  H  H16  1  0.14017809  0.28021093  0.12301229  1
  H  H17  1  0.14094994  0.28226832  0.62253071  1
  O  O18  1  0.92796192  0.85396007  0.35804631  1
  O  O19  1  0.92593960  0.85203594  0.85953656  1
  O  O20  1  0.07401945  0.14602003  0.14190880  1
  O  O21  1  0.07383053  0.14796202  0.64041016  1
  O  O22  1  0.41662666  0.83000703  0.37594158  1
  O  O23  1  0.41660820  0.83382579  0.87518759  1
  O  O24  1  0.58674183  0.16998984  0.12408438  1
  O  O25  1  0.58295027  0.16621246  0.62483551  1
  O  O26  1  0.73480619  0.47308442  0.40951977  1
  O  O27  1  0.73769648  0.47538991  0.90910682  1
  O  O28  1  0.26133626  0.52691020  0.09049408  1
  O  O29  1  0.26187055  0.52462414  0.59091826  1
  O  O30  1  0.65125763  0.83383579  0.11080899  1
  O  O31  1  0.65133537  0.83125455  0.61106114  1
  O  O32  1  0.18209086  0.83575861  0.11061381  1
  O  O33  1  0.18072223  0.83151817  0.61126561  1
  O  O34  1  0.34642234  0.16431414  0.38938081  1
  O  O35  1  0.34936053  0.16864983  0.88872131  1
  O  O36  1  0.81737212  0.16604585  0.38920979  1
  O  O37  1  0.82008609  0.16860652  0.88896763  1
