# generated using pymatgen
data_Dy2TiO5
_symmetry_space_group_name_H-M   'P 1'
_cell_length_a   3.67872121
_cell_length_b   10.34602288
_cell_length_c   11.24552047
_cell_angle_alpha   90.00000000
_cell_angle_beta   90.00000000
_cell_angle_gamma   90.00000000
_symmetry_Int_Tables_number   1
_chemical_formula_structural   Dy2TiO5
_chemical_formula_sum   'Dy8 Ti4 O20'
_cell_volume   428.00601383
_cell_formula_units_Z   4
loop_
 _symmetry_equiv_pos_site_id
 _symmetry_equiv_pos_as_xyz
  1  'x, y, z'
loop_
 _atom_site_type_symbol
 _atom_site_label
 _atom_site_symmetry_multiplicity
 _atom_site_fract_x
 _atom_site_fract_y
 _atom_site_fract_z
 _atom_site_occupancy
  Dy  Dy0  1  0.25000000  0.13614115  0.94365400  1
  Dy  Dy1  1  0.25000000  0.63614115  0.55634600  1
  Dy  Dy2  1  0.75000000  0.86385885  0.05634600  1
  Dy  Dy3  1  0.75000000  0.36385885  0.44365400  1
  Dy  Dy4  1  0.75000000  0.38494483  0.77689026  1
  Dy  Dy5  1  0.75000000  0.88494483  0.72310974  1
  Dy  Dy6  1  0.25000000  0.61505517  0.22310974  1
  Dy  Dy7  1  0.25000000  0.11505517  0.27689026  1
  Ti  Ti8  1  0.25000000  0.17464002  0.61943000  1
  Ti  Ti9  1  0.25000000  0.67464002  0.88057000  1
  Ti  Ti10  1  0.75000000  0.82535998  0.38057000  1
  Ti  Ti11  1  0.75000000  0.32535998  0.11943000  1
  O  O12  1  0.25000000  0.22376319  0.45695192  1
  O  O13  1  0.25000000  0.72376319  0.04304808  1
  O  O14  1  0.75000000  0.77623681  0.54304808  1
  O  O15  1  0.75000000  0.27623681  0.95695192  1
  O  O16  1  0.25000000  0.49307861  0.39481979  1
  O  O17  1  0.25000000  0.99307861  0.10518021  1
  O  O18  1  0.75000000  0.50692139  0.60518021  1
  O  O19  1  0.75000000  0.00692139  0.89481979  1
  O  O20  1  0.25000000  0.26225929  0.11668448  1
  O  O21  1  0.25000000  0.76225929  0.38331552  1
  O  O22  1  0.75000000  0.73774071  0.88331552  1
  O  O23  1  0.75000000  0.23774071  0.61668448  1
  O  O24  1  0.25000000  0.00688742  0.65461894  1
  O  O25  1  0.25000000  0.50688742  0.84538106  1
  O  O26  1  0.75000000  0.99311258  0.34538106  1
  O  O27  1  0.75000000  0.49311258  0.15461894  1
  O  O28  1  0.25000000  0.25669815  0.77112374  1
  O  O29  1  0.25000000  0.75669815  0.72887626  1
  O  O30  1  0.75000000  0.74330185  0.22887626  1
  O  O31  1  0.75000000  0.24330185  0.27112374  1
