# generated using pymatgen
data_La2Se2O
_symmetry_space_group_name_H-M   'P 1'
_cell_length_a   7.48449077
_cell_length_b   7.45277355
_cell_length_c   8.99800638
_cell_angle_alpha   80.37347683
_cell_angle_beta   90.00000000
_cell_angle_gamma   90.00000000
_symmetry_Int_Tables_number   1
_chemical_formula_structural   La2Se2O
_chemical_formula_sum   'La8 Se8 O4'
_cell_volume   494.84318922
_cell_formula_units_Z   4
loop_
 _symmetry_equiv_pos_site_id
 _symmetry_equiv_pos_as_xyz
  1  'x, y, z'
loop_
 _atom_site_type_symbol
 _atom_site_label
 _atom_site_symmetry_multiplicity
 _atom_site_fract_x
 _atom_site_fract_y
 _atom_site_fract_z
 _atom_site_occupancy
  La  La0  1  0.44747379  0.24480247  0.14310222  1
  La  La1  1  0.05252621  0.74480247  0.14310222  1
  La  La2  1  0.85452772  0.32375023  0.42452153  1
  La  La3  1  0.64547228  0.82375023  0.42452153  1
  La  La4  1  0.35452772  0.17624977  0.57547847  1
  La  La5  1  0.14547228  0.67624977  0.57547847  1
  La  La6  1  0.94747379  0.25519753  0.85689778  1
  La  La7  1  0.55252621  0.75519753  0.85689778  1
  Se  Se8  1  0.77595244  0.47162815  0.07874961  1
  Se  Se9  1  0.72404756  0.97162815  0.07874961  1
  Se  Se10  1  0.13311456  0.06364302  0.32232599  1
  Se  Se11  1  0.36688544  0.56364302  0.32232599  1
  Se  Se12  1  0.63311456  0.43635698  0.67767401  1
  Se  Se13  1  0.86688544  0.93635698  0.67767401  1
  Se  Se14  1  0.27595244  0.02837185  0.92125039  1
  Se  Se15  1  0.22404756  0.52837185  0.92125039  1
  O  O16  1  0.58359762  0.14844529  0.38554415  1
  O  O17  1  0.91640238  0.64844529  0.38554415  1
  O  O18  1  0.08359762  0.35155471  0.61445585  1
  O  O19  1  0.41640238  0.85155471  0.61445585  1
