# generated using pymatgen
data_P4WO12
_symmetry_space_group_name_H-M   'P 1'
_cell_length_a   7.36071488
_cell_length_b   7.36071488
_cell_length_c   10.15134924
_cell_angle_alpha   64.66529929
_cell_angle_beta   64.66529929
_cell_angle_gamma   69.15106419
_symmetry_Int_Tables_number   1
_chemical_formula_structural   P4WO12
_chemical_formula_sum   'P8 W2 O24'
_cell_volume   439.12713106
_cell_formula_units_Z   2
loop_
 _symmetry_equiv_pos_site_id
 _symmetry_equiv_pos_as_xyz
  1  'x, y, z'
loop_
 _atom_site_type_symbol
 _atom_site_label
 _atom_site_symmetry_multiplicity
 _atom_site_fract_x
 _atom_site_fract_y
 _atom_site_fract_z
 _atom_site_occupancy
  P  P0  1  0.27978746  0.31131387  0.68462223  1
  P  P1  1  0.26584555  0.73741379  0.47219516  1
  P  P2  1  0.26258621  0.73415445  0.02780484  1
  P  P3  1  0.31131387  0.27978746  0.18462223  1
  P  P4  1  0.68868613  0.72021254  0.81537777  1
  P  P5  1  0.73741379  0.26584555  0.97219516  1
  P  P6  1  0.73415445  0.26258621  0.52780484  1
  P  P7  1  0.72021254  0.68868613  0.31537777  1
  W  W8  1  0.05395952  0.94604048  0.75000000  1
  W  W9  1  0.94604048  0.05395952  0.25000000  1
  O  O10  1  0.83365679  0.63994958  0.17339068  1
  O  O11  1  0.78867918  0.25521204  0.10338895  1
  O  O12  1  0.47879047  0.75019322  0.34133977  1
  O  O13  1  0.25521204  0.78867918  0.60338895  1
  O  O14  1  0.26412469  0.50138168  0.53035550  1
  O  O15  1  0.23239479  0.14555354  0.66091473  1
  O  O16  1  0.50138168  0.26412469  0.03035550  1
  O  O17  1  0.36005042  0.16634321  0.32660932  1
  O  O18  1  0.10135172  0.85305205  0.40110073  1
  O  O19  1  0.85444646  0.76760521  0.83908527  1
  O  O20  1  0.24980678  0.52120953  0.15866023  1
  O  O21  1  0.14694795  0.89864828  0.09889927  1
  O  O22  1  0.85305205  0.10135172  0.90110073  1
  O  O23  1  0.75019322  0.47879047  0.84133977  1
  O  O24  1  0.14555354  0.23239479  0.16091473  1
  O  O25  1  0.89864828  0.14694795  0.59889927  1
  O  O26  1  0.63994958  0.83365679  0.67339068  1
  O  O27  1  0.49861832  0.73587531  0.96964450  1
  O  O28  1  0.76760521  0.85444646  0.33908527  1
  O  O29  1  0.73587531  0.49861832  0.46964450  1
  O  O30  1  0.74478796  0.21132082  0.39661105  1
  O  O31  1  0.52120953  0.24980678  0.65866023  1
  O  O32  1  0.21132082  0.74478796  0.89661105  1
  O  O33  1  0.16634321  0.36005042  0.82660932  1
