# generated using pymatgen
data_BN
_symmetry_space_group_name_H-M   'P 1'
_cell_length_a   3.72079071
_cell_length_b   3.27375654
_cell_length_c   2.50804092
_cell_angle_alpha   78.89295443
_cell_angle_beta   59.69760739
_cell_angle_gamma   41.40943817
_symmetry_Int_Tables_number   1
_chemical_formula_structural   BN
_chemical_formula_sum   'B1 N1'
_cell_volume   16.49725458
_cell_formula_units_Z   1
loop_
 _symmetry_equiv_pos_site_id
 _symmetry_equiv_pos_as_xyz
  1  'x, y, z'
loop_
 _atom_site_type_symbol
 _atom_site_label
 _atom_site_symmetry_multiplicity
 _atom_site_fract_x
 _atom_site_fract_y
 _atom_site_fract_z
 _atom_site_occupancy
  B  B0  1  0.97964300  0.02216300  0.01650100  1
  N  N1  1  0.66850600  0.31649300  0.66761500  1
