# generated using pymatgen
data_Cs3TlO3
_symmetry_space_group_name_H-M   'P 1'
_cell_length_a   7.37311717
_cell_length_b   8.29578269
_cell_length_c   11.95502487
_cell_angle_alpha   85.18889506
_cell_angle_beta   90.00000000
_cell_angle_gamma   90.00000000
_symmetry_Int_Tables_number   1
_chemical_formula_structural   Cs3TlO3
_chemical_formula_sum   'Cs12 Tl4 O12'
_cell_volume   728.66196597
_cell_formula_units_Z   4
loop_
 _symmetry_equiv_pos_site_id
 _symmetry_equiv_pos_as_xyz
  1  'x, y, z'
loop_
 _atom_site_type_symbol
 _atom_site_label
 _atom_site_symmetry_multiplicity
 _atom_site_fract_x
 _atom_site_fract_y
 _atom_site_fract_z
 _atom_site_occupancy
  Cs  Cs0  1  0.32460422  0.35151910  0.07172915  1
  Cs  Cs1  1  0.62623251  0.95150607  0.15533528  1
  Cs  Cs2  1  0.81603031  0.37223525  0.19308433  1
  Cs  Cs3  1  0.31603031  0.62776475  0.30691567  1
  Cs  Cs4  1  0.12623251  0.04849393  0.34466472  1
  Cs  Cs5  1  0.82460422  0.64848090  0.42827085  1
  Cs  Cs6  1  0.17539578  0.35151910  0.57172915  1
  Cs  Cs7  1  0.87376749  0.95150607  0.65533528  1
  Cs  Cs8  1  0.68396969  0.37223525  0.69308433  1
  Cs  Cs9  1  0.18396969  0.62776475  0.80691567  1
  Cs  Cs10  1  0.37376749  0.04849393  0.84466472  1
  Cs  Cs11  1  0.67539578  0.64848090  0.92827085  1
  Tl  Tl12  1  0.08879993  0.83803986  0.06860123  1
  Tl  Tl13  1  0.58879993  0.16196014  0.43139877  1
  Tl  Tl14  1  0.41120007  0.83803986  0.56860123  1
  Tl  Tl15  1  0.91120007  0.16196014  0.93139877  1
  O  O16  1  0.35294014  0.74719178  0.03708783  1
  O  O17  1  0.04548838  0.10051660  0.09822064  1
  O  O18  1  0.93525253  0.70171091  0.19442878  1
  O  O19  1  0.43525253  0.29828909  0.30557122  1
  O  O20  1  0.54548838  0.89948340  0.40177936  1
  O  O21  1  0.85294014  0.25280822  0.46291217  1
  O  O22  1  0.14705986  0.74719178  0.53708783  1
  O  O23  1  0.45451162  0.10051660  0.59822064  1
  O  O24  1  0.56474747  0.70171091  0.69442878  1
  O  O25  1  0.06474747  0.29828909  0.80557122  1
  O  O26  1  0.95451162  0.89948340  0.90177936  1
  O  O27  1  0.64705986  0.25280822  0.96291217  1
