# generated using pymatgen
data_La4Ga2O9
_symmetry_space_group_name_H-M   'P 1'
_cell_length_a   11.20320497
_cell_length_b   7.97607134
_cell_length_c   11.61366357
_cell_angle_alpha   70.56483955
_cell_angle_beta   90.00000000
_cell_angle_gamma   90.00000000
_symmetry_Int_Tables_number   1
_chemical_formula_structural   La4Ga2O9
_chemical_formula_sum   'La16 Ga8 O36'
_cell_volume   978.63519757
_cell_formula_units_Z   4
loop_
 _symmetry_equiv_pos_site_id
 _symmetry_equiv_pos_as_xyz
  1  'x, y, z'
loop_
 _atom_site_type_symbol
 _atom_site_label
 _atom_site_symmetry_multiplicity
 _atom_site_fract_x
 _atom_site_fract_y
 _atom_site_fract_z
 _atom_site_occupancy
  La  La0  1  0.91487987  0.97467443  0.80818470  1
  La  La1  1  0.58512013  0.97467443  0.30818470  1
  La  La2  1  0.12407538  0.83598365  0.58516685  1
  La  La3  1  0.62311761  0.66654731  0.92672425  1
  La  La4  1  0.37592462  0.83598365  0.08516685  1
  La  La5  1  0.87688239  0.66654731  0.42672425  1
  La  La6  1  0.40149573  0.52212957  0.71369249  1
  La  La7  1  0.90149573  0.47787043  0.78630751  1
  La  La8  1  0.09850427  0.52212957  0.21369249  1
  La  La9  1  0.59850427  0.47787043  0.28630751  1
  La  La10  1  0.12311761  0.33345269  0.57327575  1
  La  La11  1  0.62407538  0.16401635  0.91483315  1
  La  La12  1  0.37688239  0.33345269  0.07327575  1
  La  La13  1  0.87592462  0.16401635  0.41483315  1
  La  La14  1  0.41487987  0.02532557  0.69181530  1
  La  La15  1  0.08512013  0.02532557  0.19181530  1
  Ga  Ga16  1  0.69170563  0.77894265  0.62934415  1
  Ga  Ga17  1  0.18872101  0.65412644  0.88211526  1
  Ga  Ga18  1  0.80829437  0.77894265  0.12934415  1
  Ga  Ga19  1  0.31127899  0.65412644  0.38211526  1
  Ga  Ga20  1  0.68872101  0.34587356  0.61788474  1
  Ga  Ga21  1  0.19170563  0.22105735  0.87065585  1
  Ga  Ga22  1  0.81127899  0.34587356  0.11788474  1
  Ga  Ga23  1  0.30829437  0.22105735  0.37065585  1
  O  O24  1  0.76686869  0.92416894  0.97722354  1
  O  O25  1  0.49806340  0.92434067  0.89518602  1
  O  O26  1  0.28141720  0.78541808  0.75137867  1
  O  O27  1  0.78007198  0.76727140  0.76714514  1
  O  O28  1  0.73313131  0.92416894  0.47722354  1
  O  O29  1  0.00193660  0.92434067  0.39518602  1
  O  O30  1  0.03583526  0.70412321  0.82249347  1
  O  O31  1  0.53546783  0.77711223  0.67595955  1
  O  O32  1  0.21858280  0.78541808  0.25137867  1
  O  O33  1  0.71992802  0.76727140  0.26714514  1
  O  O34  1  0.27219547  0.63727032  0.53837761  1
  O  O35  1  0.46416474  0.70412321  0.32249347  1
  O  O36  1  0.74807837  0.56596749  0.61625852  1
  O  O37  1  0.50963434  0.42943162  0.89918389  1
  O  O38  1  0.96453217  0.77711223  0.17595955  1
  O  O39  1  0.00963434  0.57056838  0.60081611  1
  O  O40  1  0.24807837  0.43403251  0.88374148  1
  O  O41  1  0.77219547  0.36272968  0.96162239  1
  O  O42  1  0.22780453  0.63727032  0.03837761  1
  O  O43  1  0.75192163  0.56596749  0.11625852  1
  O  O44  1  0.99036566  0.42943162  0.39918389  1
  O  O45  1  0.03546783  0.22288777  0.82404045  1
  O  O46  1  0.49036566  0.57056838  0.10081611  1
  O  O47  1  0.25192163  0.43403251  0.38374148  1
  O  O48  1  0.53583526  0.29587679  0.67750653  1
  O  O49  1  0.72780453  0.36272968  0.46162239  1
  O  O50  1  0.28007198  0.23272860  0.73285486  1
  O  O51  1  0.78141720  0.21458192  0.74862133  1
  O  O52  1  0.46453217  0.22288777  0.32404045  1
  O  O53  1  0.96416474  0.29587679  0.17750653  1
  O  O54  1  0.99806340  0.07565933  0.60481398  1
  O  O55  1  0.26686869  0.07583106  0.52277646  1
  O  O56  1  0.21992802  0.23272860  0.23285486  1
  O  O57  1  0.71858280  0.21458192  0.24862133  1
  O  O58  1  0.50193660  0.07565933  0.10481398  1
  O  O59  1  0.23313131  0.07583106  0.02277646  1
