# generated using pymatgen
data_K2Cr2AsHO10
_symmetry_space_group_name_H-M   'P 1'
_cell_length_a   7.68862602
_cell_length_b   7.68862602
_cell_length_c   14.43606371
_cell_angle_alpha   90.00000000
_cell_angle_beta   90.00000000
_cell_angle_gamma   120.00000018
_symmetry_Int_Tables_number   1
_chemical_formula_structural   K2Cr2AsHO10
_chemical_formula_sum   'K6 Cr6 As3 H3 O30'
_cell_volume   739.05523075
_cell_formula_units_Z   3
loop_
 _symmetry_equiv_pos_site_id
 _symmetry_equiv_pos_as_xyz
  1  'x, y, z'
loop_
 _atom_site_type_symbol
 _atom_site_label
 _atom_site_symmetry_multiplicity
 _atom_site_fract_x
 _atom_site_fract_y
 _atom_site_fract_z
 _atom_site_occupancy
  K  K0  1  0.55327363  0.01385277  0.01424778  1
  K  K1  1  0.46057915  0.44672637  0.68091478  1
  K  K2  1  0.98614723  0.53942085  0.34758178  1
  K  K3  1  0.38600476  0.39140368  0.18683680  1
  K  K4  1  0.00539791  0.61399524  0.85350280  1
  K  K5  1  0.60859632  0.99460209  0.52016980  1
  Cr  Cr6  1  0.57196239  0.99398345  0.27695904  1
  Cr  Cr7  1  0.42202106  0.42803761  0.94362604  1
  Cr  Cr8  1  0.00601655  0.57797894  0.61029304  1
  Cr  Cr9  1  0.98817721  0.57350167  0.09481946  1
  Cr  Cr10  1  0.58532447  0.01182279  0.76148546  1
  Cr  Cr11  1  0.42649833  0.41467553  0.42815246  1
  As  As12  1  0.86521366  0.88877290  0.16632499  1
  As  As13  1  0.02355923  0.13478634  0.83299099  1
  As  As14  1  0.11122710  0.97644077  0.49965799  1
  H  H15  1  0.94700376  0.96674833  0.97455282  1
  H  H16  1  0.01974557  0.05299624  0.64121982  1
  H  H17  1  0.03325167  0.98025443  0.30788682  1
  O  O18  1  0.75553706  0.13799443  0.34366662  1
  O  O19  1  0.38245737  0.24446294  0.01033362  1
  O  O20  1  0.86200557  0.61754263  0.67699962  1
  O  O21  1  0.53455134  0.12307733  0.19975253  1
  O  O22  1  0.58852599  0.46544866  0.86641853  1
  O  O23  1  0.87692267  0.41147401  0.53308553  1
  O  O24  1  0.37461043  0.85894710  0.33860954  1
  O  O25  1  0.48433768  0.62538957  0.00527654  1
  O  O26  1  0.14105290  0.51566232  0.67194254  1
  O  O27  1  0.63840868  0.82591581  0.21773232  1
  O  O28  1  0.18750613  0.36159132  0.88439832  1
  O  O29  1  0.17408419  0.81249387  0.55106532  1
  O  O30  1  0.89977630  0.01119614  0.06846704  1
  O  O31  1  0.11141884  0.10022370  0.73513404  1
  O  O32  1  0.98880386  0.88858116  0.40180004  1
  O  O33  1  0.05923120  0.02874686  0.24014010  1
  O  O34  1  0.96951566  0.94076880  0.90680610  1
  O  O35  1  0.97125314  0.03048434  0.57347310  1
  O  O36  1  0.83436048  0.65046875  0.15989771  1
  O  O37  1  0.81610726  0.16563952  0.82656371  1
  O  O38  1  0.34953125  0.18389274  0.49323071  1
  O  O39  1  0.15617056  0.76614943  0.03984630  1
  O  O40  1  0.60997887  0.84382944  0.70651230  1
  O  O41  1  0.23385057  0.39002113  0.37317930  1
  O  O42  1  0.08799267  0.49030744  0.16777657  1
  O  O43  1  0.40231477  0.91200733  0.83444357  1
  O  O44  1  0.50969256  0.59768523  0.50111057  1
  O  O45  1  0.84761350  0.40405178  0.02122437  1
  O  O46  1  0.55643929  0.15238650  0.68789037  1
  O  O47  1  0.59594822  0.44356071  0.35455737  1
