# generated using pymatgen
data_Al2O3
_symmetry_space_group_name_H-M   'P 1'
_cell_length_a   7.73261236
_cell_length_b   3.26954650
_cell_length_c   10.51894167
_cell_angle_alpha   90.00580801
_cell_angle_beta   27.55386377
_cell_angle_gamma   102.20980271
_symmetry_Int_Tables_number   1
_chemical_formula_structural   Al2O3
_chemical_formula_sum   'Al4 O6'
_cell_volume   109.42168181
_cell_formula_units_Z   2
loop_
 _symmetry_equiv_pos_site_id
 _symmetry_equiv_pos_as_xyz
  1  'x, y, z'
loop_
 _atom_site_type_symbol
 _atom_site_label
 _atom_site_symmetry_multiplicity
 _atom_site_fract_x
 _atom_site_fract_y
 _atom_site_fract_z
 _atom_site_occupancy
  Al  Al0  1  0.36856252  0.67501188  0.19984725  1
  Al  Al1  1  0.21113706  0.59623142  0.63180843  1
  Al  Al2  1  0.63164519  0.30639994  0.79999071  1
  Al  Al3  1  0.78879021  0.38508779  0.36826661  1
  O  O4  1  0.18936840  0.58532208  0.47776110  1
  O  O5  1  0.40191281  0.69153144  0.97570085  1
  O  O6  1  0.59809936  0.28972226  0.02424871  1
  O  O7  1  0.20932691  0.09535120  0.70206786  1
  O  O8  1  0.79038698  0.88585094  0.29816861  1
  O  O9  1  0.81077255  0.39577605  0.52214088  1
