# generated using pymatgen
data_NaSb
_symmetry_space_group_name_H-M   'P 1'
_cell_length_a   6.34242564
_cell_length_b   6.78524533
_cell_length_c   11.13958056
_cell_angle_alpha   95.54876874
_cell_angle_beta   90.00000000
_cell_angle_gamma   90.00000000
_symmetry_Int_Tables_number   1
_chemical_formula_structural   NaSb
_chemical_formula_sum   'Na8 Sb8'
_cell_volume   477.14458752
_cell_formula_units_Z   8
loop_
 _symmetry_equiv_pos_site_id
 _symmetry_equiv_pos_as_xyz
  1  'x, y, z'
loop_
 _atom_site_type_symbol
 _atom_site_label
 _atom_site_symmetry_multiplicity
 _atom_site_fract_x
 _atom_site_fract_y
 _atom_site_fract_z
 _atom_site_occupancy
  Na  Na0  1  0.83593754  0.31029528  0.54187681  1
  Na  Na1  1  0.33593754  0.18970472  0.95812319  1
  Na  Na2  1  0.16406246  0.68970472  0.45812319  1
  Na  Na3  1  0.66406246  0.81029528  0.04187681  1
  Na  Na4  1  0.09739988  0.59680211  0.82703572  1
  Na  Na5  1  0.59739988  0.90319789  0.67296428  1
  Na  Na6  1  0.90260012  0.40319789  0.17296428  1
  Na  Na7  1  0.40260012  0.09680211  0.32703572  1
  Sb  Sb8  1  0.33676133  0.31373470  0.60475571  1
  Sb  Sb9  1  0.83676133  0.18626530  0.89524429  1
  Sb  Sb10  1  0.66323867  0.68626530  0.39524429  1
  Sb  Sb11  1  0.16323867  0.81373470  0.10475571  1
  Sb  Sb12  1  0.59518072  0.49004782  0.79770876  1
  Sb  Sb13  1  0.09518072  0.00995218  0.70229124  1
  Sb  Sb14  1  0.40481928  0.50995218  0.20229124  1
  Sb  Sb15  1  0.90481928  0.99004782  0.29770876  1
