# generated using pymatgen
data_K2NaCa2TiSi7HO20
_symmetry_space_group_name_H-M   'P 1'
_cell_length_a   7.06618716
_cell_length_b   10.40562636
_cell_length_c   12.17040552
_cell_angle_alpha   92.65274739
_cell_angle_beta   90.58204788
_cell_angle_gamma   99.14170767
_symmetry_Int_Tables_number   1
_chemical_formula_structural   K2NaCa2TiSi7HO20
_chemical_formula_sum   'K4 Na2 Ca4 Ti2 Si14 H2 O40'
_cell_volume   882.41470011
_cell_formula_units_Z   2
loop_
 _symmetry_equiv_pos_site_id
 _symmetry_equiv_pos_as_xyz
  1  'x, y, z'
loop_
 _atom_site_type_symbol
 _atom_site_label
 _atom_site_symmetry_multiplicity
 _atom_site_fract_x
 _atom_site_fract_y
 _atom_site_fract_z
 _atom_site_occupancy
  K  K0  1  0.22018922  0.33696323  0.09653552  1
  K  K1  1  0.77981078  0.66303677  0.90346448  1
  K  K2  1  0.72682459  0.44835639  0.34892929  1
  K  K3  1  0.27317541  0.55164361  0.65107071  1
  Na  Na4  1  0.61175178  0.97801082  0.10854565  1
  Na  Na5  1  0.38824822  0.02198918  0.89145435  1
  Ca  Ca6  1  0.08850438  0.87975483  0.40694626  1
  Ca  Ca7  1  0.91149562  0.12024517  0.59305374  1
  Ca  Ca8  1  0.59030986  0.87557500  0.42030810  1
  Ca  Ca9  1  0.40969014  0.12442500  0.57969190  1
  Ti  Ti10  1  0.10266183  0.98576894  0.10006617  1
  Ti  Ti11  1  0.89733817  0.01423106  0.89993383  1
  Si  Si12  1  0.12591190  0.86911894  0.69194410  1
  Si  Si13  1  0.87408810  0.13088106  0.30805590  1
  Si  Si14  1  0.57585948  0.87098006  0.70124576  1
  Si  Si15  1  0.42414052  0.12901994  0.29875424  1
  Si  Si16  1  0.80346863  0.68376779  0.58450099  1
  Si  Si17  1  0.19653137  0.31623221  0.41549901  1
  Si  Si18  1  0.00350064  0.31631040  0.81824806  1
  Si  Si19  1  0.99649936  0.68368960  0.18175194  1
  Si  Si20  1  0.43207749  0.30990065  0.81341551  1
  Si  Si21  1  0.56792251  0.69009935  0.18658449  1
  Si  Si22  1  0.73391389  0.39673425  0.64851444  1
  Si  Si23  1  0.26608611  0.60326575  0.35148556  1
  Si  Si24  1  0.71885602  0.27603055  0.99099935  1
  Si  Si25  1  0.28114398  0.72396945  0.00900065  1
  H  H26  1  0.30051572  0.74048862  0.82716749  1
  H  H27  1  0.69948428  0.25951138  0.17283251  1
  O  O28  1  0.00351167  0.72404027  0.65634914  1
  O  O29  1  0.99648833  0.27595973  0.34365086  1
  O  O30  1  0.05071287  0.91949340  0.80706867  1
  O  O31  1  0.94928713  0.08050660  0.19293133  1
  O  O32  1  0.12650755  0.96559193  0.59332010  1
  O  O33  1  0.87349245  0.03440807  0.40667990  1
  O  O34  1  0.34160977  0.83509331  0.71769362  1
  O  O35  1  0.65839023  0.16490669  0.28230638  1
  O  O36  1  0.66463308  0.91676977  0.82072770  1
  O  O37  1  0.33536692  0.08323023  0.17927230  1
  O  O38  1  0.62196297  0.96968419  0.60418652  1
  O  O39  1  0.37803703  0.03031581  0.39581348  1
  O  O40  1  0.63256988  0.72731220  0.66198430  1
  O  O41  1  0.36743012  0.27268780  0.33801570  1
  O  O42  1  0.81246307  0.74255491  0.46637408  1
  O  O43  1  0.18753693  0.25744509  0.53362592  1
  O  O44  1  0.76157204  0.52477683  0.57403397  1
  O  O45  1  0.23842796  0.47522317  0.42596603  1
  O  O46  1  0.93118181  0.40600917  0.72328671  1
  O  O47  1  0.06881819  0.59399083  0.27671329  1
  O  O48  1  0.91046192  0.35613988  0.93527833  1
  O  O49  1  0.08953808  0.64386012  0.06472167  1
  O  O50  1  0.94049681  0.16481034  0.78590951  1
  O  O51  1  0.05950319  0.83518966  0.21409049  1
  O  O52  1  0.23198772  0.36758265  0.83039558  1
  O  O53  1  0.76801228  0.63241735  0.16960442  1
  O  O54  1  0.40950910  0.16723843  0.76163143  1
  O  O55  1  0.59049090  0.83276157  0.23836857  1
  O  O56  1  0.53258782  0.32729195  0.93682709  1
  O  O57  1  0.46741218  0.67270805  0.06317291  1
  O  O58  1  0.56126041  0.41578516  0.73487611  1
  O  O59  1  0.43873959  0.58421484  0.26512389  1
  O  O60  1  0.69567526  0.26814128  0.57124751  1
  O  O61  1  0.30432474  0.73185872  0.42875249  1
  O  O62  1  0.72756764  0.32764761  0.11982307  1
  O  O63  1  0.27243236  0.67235239  0.88017693  1
  O  O64  1  0.70952189  0.12168017  0.97298597  1
  O  O65  1  0.29047811  0.87831983  0.02701403  1
  O  O66  1  0.11847199  0.09915727  0.98545715  1
  O  O67  1  0.88152801  0.90084273  0.01454285  1
