# generated using pymatgen
data_Gd3As5O12
_symmetry_space_group_name_H-M   'P 1'
_cell_length_a   9.19202922
_cell_length_b   9.19202291
_cell_length_c   9.19203464
_cell_angle_alpha   109.47097919
_cell_angle_beta   109.47107948
_cell_angle_gamma   109.47101342
_symmetry_Int_Tables_number   1
_chemical_formula_structural   Gd3As5O12
_chemical_formula_sum   'Gd6 As10 O24'
_cell_volume   597.88191535
_cell_formula_units_Z   2
loop_
 _symmetry_equiv_pos_site_id
 _symmetry_equiv_pos_as_xyz
  1  'x, y, z'
loop_
 _atom_site_type_symbol
 _atom_site_label
 _atom_site_symmetry_multiplicity
 _atom_site_fract_x
 _atom_site_fract_y
 _atom_site_fract_z
 _atom_site_occupancy
  Gd  Gd0  1  0.74999729  0.49999743  0.24999708  1
  Gd  Gd1  1  0.49999766  0.74999751  0.24999809  1
  Gd  Gd2  1  0.74999772  0.24999765  0.49999802  1
  Gd  Gd3  1  0.24999743  0.74999748  0.49999759  1
  Gd  Gd4  1  0.24999703  0.49999789  0.74999799  1
  Gd  Gd5  1  0.49999780  0.24999767  0.74999780  1
  As  As6  1  0.71312457  0.71312578  -0.00000205  1
  As  As7  1  0.00000092  0.00000161  0.50042581  1
  As  As8  1  0.00000141  0.28687364  0.28687403  1
  As  As9  1  0.28687306  0.00000017  0.28687338  1
  As  As10  1  0.49957667  0.49957658  0.49957649  1
  As  As11  1  0.71312566  0.00000100  0.71312487  1
  As  As12  1  0.00000065  0.71312445  0.71312464  1
  As  As13  1  0.00000125  0.50042548  0.00000130  1
  As  As14  1  0.50042605  0.00000177  0.00000176  1
  As  As15  1  0.28687223  0.28687242  -0.00000138  1
  O  O16  1  0.70154403  0.70154440  0.18323100  1
  O  O17  1  0.29845560  0.48168680  0.00000019  1
  O  O18  1  0.48168650  0.29845510  -0.00000021  1
  O  O19  1  0.71363617  0.18871085  0.18871081  1
  O  O20  1  0.18871119  0.71363656  0.18871132  1
  O  O21  1  0.00000185  0.81129131  0.52492736  1
  O  O22  1  0.81129172  0.00000184  0.52492732  1
  O  O23  1  0.47507529  0.47507509  0.28636469  1
  O  O24  1  0.51831356  0.81676881  0.51831385  1
  O  O25  1  0.81676839  0.51831324  0.51831308  1
  O  O26  1  -0.00000004  0.48168665  0.29845565  1
  O  O27  1  0.48168691  0.00000009  0.29845567  1
  O  O28  1  0.28636435  0.47507496  0.47507487  1
  O  O29  1  0.47507485  0.28636449  0.47507510  1
  O  O30  1  0.00000172  0.52492664  0.81129145  1
  O  O31  1  0.52492748  0.00000180  0.81129139  1
  O  O32  1  0.70154450  0.18323079  0.70154454  1
  O  O33  1  0.18323080  0.70154431  0.70154411  1
  O  O34  1  -0.00000018  0.29845526  0.48168682  1
  O  O35  1  0.29845571  0.00000000  0.48168703  1
  O  O36  1  0.51831287  0.51831323  0.81676835  1
  O  O37  1  0.52492720  0.81129127  0.00000188  1
  O  O38  1  0.81129105  0.52492676  0.00000178  1
  O  O39  1  0.18871106  0.18871119  0.71363656  1
