# generated using pymatgen
data_BiPO4
_symmetry_space_group_name_H-M   'P 1'
_cell_length_a   6.97242576
_cell_length_b   6.97248377
_cell_length_c   6.43984079
_cell_angle_alpha   89.99903216
_cell_angle_beta   90.00051177
_cell_angle_gamma   120.00153651
_symmetry_Int_Tables_number   1
_chemical_formula_structural   BiPO4
_chemical_formula_sum   'Bi3 P3 O12'
_cell_volume   271.12555137
_cell_formula_units_Z   3
loop_
 _symmetry_equiv_pos_site_id
 _symmetry_equiv_pos_as_xyz
  1  'x, y, z'
loop_
 _atom_site_type_symbol
 _atom_site_label
 _atom_site_symmetry_multiplicity
 _atom_site_fract_x
 _atom_site_fract_y
 _atom_site_fract_z
 _atom_site_occupancy
  Bi  Bi0  1  0.47995669  -0.00000656  0.83335695  1
  Bi  Bi1  1  0.52003764  0.52003781  0.50001104  1
  Bi  Bi2  1  -0.00000369  0.47995936  0.16664089  1
  P  P3  1  0.43984621  0.00000087  0.33333887  1
  P  P4  1  0.56013438  0.56013903  0.00000744  1
  P  P5  1  0.00000140  0.43984198  0.66665225  1
  O  O6  1  0.23722509  0.84288249  0.20251916  1
  O  O7  1  0.60564647  0.76280329  0.86914617  1
  O  O8  1  0.15712672  0.39435838  0.53585751  1
  O  O9  1  0.76279020  0.60563644  0.13085669  1
  O  O10  1  0.84287251  0.23721898  0.79747710  1
  O  O11  1  0.39436812  0.15713548  0.46414132  1
  O  O12  1  0.50146556  0.87540782  0.49304926  1
  O  O13  1  0.37389517  0.49853284  0.15971885  1
  O  O14  1  0.12462821  0.62605953  0.82639033  1
  O  O15  1  0.49853200  0.37389926  0.84027888  1
  O  O16  1  0.87541162  0.50147084  0.50695118  1
  O  O17  1  0.62606571  0.12462216  0.17360612  1
