# generated using pymatgen
data_Cs4Zr3Se14
_symmetry_space_group_name_H-M   'P 1'
_cell_length_a   12.36509275
_cell_length_b   12.36568620
_cell_length_c   14.74011767
_cell_angle_alpha   69.65112034
_cell_angle_beta   69.65384725
_cell_angle_gamma   42.58501410
_symmetry_Int_Tables_number   1
_chemical_formula_structural   Cs4Zr3Se14
_chemical_formula_sum   'Cs8 Zr6 Se28'
_cell_volume   1414.93278582
_cell_formula_units_Z   2
loop_
 _symmetry_equiv_pos_site_id
 _symmetry_equiv_pos_as_xyz
  1  'x, y, z'
loop_
 _atom_site_type_symbol
 _atom_site_label
 _atom_site_symmetry_multiplicity
 _atom_site_fract_x
 _atom_site_fract_y
 _atom_site_fract_z
 _atom_site_occupancy
  Cs  Cs0  1  0.97767664  0.61903851  0.60808678  1
  Cs  Cs1  1  0.61902457  0.97768208  0.10808638  1
  Cs  Cs2  1  0.81109916  0.31591625  0.84963636  1
  Cs  Cs3  1  0.31593713  0.81109339  0.34961505  1
  Cs  Cs4  1  0.68404832  0.18890081  0.65038241  1
  Cs  Cs5  1  0.18888816  0.68408022  0.15037023  1
  Cs  Cs6  1  0.38095773  0.02232008  0.89191639  1
  Cs  Cs7  1  0.02230238  0.38097226  0.39191790  1
  Zr  Zr8  1  0.41280939  0.92230875  0.58509072  1
  Zr  Zr9  1  0.92232139  0.41278995  0.08510842  1
  Zr  Zr10  1  0.24015929  0.75985068  0.75000403  1
  Zr  Zr11  1  0.75985978  0.24013817  0.24999554  1
  Zr  Zr12  1  0.07768174  0.58720034  0.91489864  1
  Zr  Zr13  1  0.58720118  0.07769042  0.41488623  1
  Se  Se14  1  0.93571909  0.90118944  0.86849762  1
  Se  Se15  1  0.80865773  0.84219760  0.83616458  1
  Se  Se16  1  0.90118676  0.93569664  0.36848703  1
  Se  Se17  1  0.56414226  -0.00321455  0.60165372  1
  Se  Se18  1  0.84215853  0.80870443  0.33612231  1
  Se  Se19  1  -0.00317553  0.56408052  0.10167207  1
  Se  Se20  1  0.69160153  0.60065356  0.60637154  1
  Se  Se21  1  0.45062196  0.74932832  0.78203259  1
  Se  Se22  1  0.20216809  0.87651714  0.89590145  1
  Se  Se23  1  0.47063086  0.65923187  0.58058516  1
  Se  Se24  1  0.60062680  0.69158155  0.10638334  1
  Se  Se25  1  0.74933665  0.45057983  0.28203532  1
  Se  Se26  1  0.34077200  0.52937237  0.91941938  1
  Se  Se27  1  0.87656394  0.20209295  0.39591695  1
  Se  Se28  1  0.12344998  0.79789973  0.60408506  1
  Se  Se29  1  0.65924759  0.47059973  0.08058498  1
  Se  Se30  1  0.25063172  0.54943782  0.71797318  1
  Se  Se31  1  0.39936003  0.30839936  0.89362892  1
  Se  Se32  1  0.52939975  0.34074444  0.41940609  1
  Se  Se33  1  0.79781936  0.12349509  0.10410271  1
  Se  Se34  1  0.54937807  0.25068222  0.21797402  1
  Se  Se35  1  0.30838907  0.39937739  0.39364919  1
  Se  Se36  1  0.00316734  0.43591631  0.89833729  1
  Se  Se37  1  0.15786155  0.19130216  0.66384654  1
  Se  Se38  1  0.43586706  0.00322183  0.39832259  1
  Se  Se39  1  0.09879841  0.06430730  0.63151171  1
  Se  Se40  1  0.19133977  0.15781895  0.16384149  1
  Se  Se41  1  0.06430773  0.09880408  0.13149707  1
