# generated using pymatgen
data_Fe35SiO48
_symmetry_space_group_name_H-M   'P 1'
_cell_length_a   10.46859477
_cell_length_b   10.46859477
_cell_length_c   10.53574814
_cell_angle_alpha   80.07376062
_cell_angle_beta   80.07376062
_cell_angle_gamma   119.60383727
_symmetry_Int_Tables_number   1
_chemical_formula_structural   Fe35SiO48
_chemical_formula_sum   'Fe35 Si1 O48'
_cell_volume   943.10978600
_cell_formula_units_Z   1
loop_
 _symmetry_equiv_pos_site_id
 _symmetry_equiv_pos_as_xyz
  1  'x, y, z'
loop_
 _atom_site_type_symbol
 _atom_site_label
 _atom_site_symmetry_multiplicity
 _atom_site_fract_x
 _atom_site_fract_y
 _atom_site_fract_z
 _atom_site_occupancy
  Fe  Fe0  1  0.10477600  0.26556300  0.18588000  1
  Fe  Fe1  1  0.26556300  0.10477600  0.18588000  1
  Fe  Fe2  1  0.18816200  0.18816200  0.43622500  1
  Fe  Fe3  1  0.76929800  0.10105900  0.18795200  1
  Fe  Fe4  1  0.43825500  0.43825500  0.19048200  1
  Fe  Fe5  1  0.10105900  0.76929800  0.18795200  1
  Fe  Fe6  1  0.54265100  0.20491700  0.37771100  1
  Fe  Fe7  1  0.20491700  0.54265100  0.37771100  1
  Fe  Fe8  1  0.43521100  0.94110200  0.18505000  1
  Fe  Fe9  1  0.27808500  0.10670000  0.68700500  1
  Fe  Fe10  1  0.94110200  0.43521100  0.18505000  1
  Fe  Fe11  1  0.77351000  0.60340800  0.19003300  1
  Fe  Fe12  1  0.10670000  0.27808500  0.68700500  1
  Fe  Fe13  1  0.60340800  0.77351000  0.19003300  1
  Fe  Fe14  1  0.49647600  0.49647600  0.49977600  1
  Fe  Fe15  1  0.83765900  0.16828000  0.49867900  1
  Fe  Fe16  1  0.16828000  0.83765900  0.49867900  1
  Fe  Fe17  1  0.60520100  0.27370800  0.68687700  1
  Fe  Fe18  1  0.27370800  0.60520100  0.68687700  1
  Fe  Fe19  1  0.35950300  0.02659100  0.93300000  1
  Fe  Fe20  1  0.85003700  0.51440600  0.44224000  1
  Fe  Fe21  1  0.02659100  0.35950300  0.93300000  1
  Fe  Fe22  1  0.51440600  0.85003700  0.44224000  1
  Fe  Fe23  1  0.37617200  0.37617200  0.87462700  1
  Fe  Fe24  1  0.04224400  0.70767700  0.87368900  1
  Fe  Fe25  1  0.87233500  0.87233500  0.37867700  1
  Fe  Fe26  1  0.70767700  0.04224400  0.87368900  1
  Fe  Fe27  1  0.93791400  0.43828700  0.68795900  1
  Fe  Fe28  1  0.43828700  0.93791400  0.68795900  1
  Fe  Fe29  1  0.76879100  0.59787400  0.68597600  1
  Fe  Fe30  1  0.59787400  0.76879100  0.68597600  1
  Fe  Fe31  1  0.66733800  0.33307400  0.00164500  1
  Fe  Fe32  1  0.33307400  0.66733800  0.00164500  1
  Fe  Fe33  1  0.93629500  0.93629500  0.69009200  1
  Fe  Fe34  1  0.68827900  0.68827900  0.93419000  1
  Si  Si35  1  0.99666500  0.99666500  0.99797500  1
  O  O36  1  0.46455800  0.12747000  0.06063700  1
  O  O37  1  0.12747000  0.46455800  0.06063700  1
  O  O38  1  0.31643600  0.31643600  0.06830600  1
  O  O39  1  0.06247900  0.06247900  0.32445100  1
  O  O40  1  0.56680400  0.04930000  0.30354700  1
  O  O41  1  0.38552500  0.23758800  0.31280000  1
  O  O42  1  0.23758800  0.38552500  0.31280000  1
  O  O43  1  0.04930000  0.56680400  0.30354700  1
  O  O44  1  0.30496900  0.82842000  0.06740000  1
  O  O45  1  0.12632400  0.97360100  0.05409700  1
  O  O46  1  0.82842000  0.30496900  0.06740000  1
  O  O47  1  0.65088400  0.50142100  0.06833200  1
  O  O48  1  0.97360100  0.12632400  0.05409700  1
  O  O49  1  0.50142100  0.65088400  0.06833200  1
  O  O50  1  0.29182500  0.29182500  0.57497700  1
  O  O51  1  0.89520400  0.23003800  0.29298700  1
  O  O52  1  0.05256500  0.05256500  0.82761700  1
  O  O53  1  0.57776700  0.57776700  0.29078700  1
  O  O54  1  0.23003800  0.89520400  0.29298700  1
  O  O55  1  0.82415100  0.82415100  0.05592400  1
  O  O56  1  0.46993900  0.14033300  0.57907200  1
  O  O57  1  0.41488600  0.74894600  0.30497000  1
  O  O58  1  0.97144300  0.63975900  0.08134000  1
  O  O59  1  0.14033300  0.46993900  0.57907200  1
  O  O60  1  0.74894600  0.41488600  0.30497000  1
  O  O61  1  0.63975900  0.97144300  0.08134000  1
  O  O62  1  0.54772800  0.06340900  0.80637700  1
  O  O63  1  0.72339800  0.89679200  0.30931700  1
  O  O64  1  0.06340900  0.54772800  0.80637700  1
  O  O65  1  0.22060700  0.39058500  0.81279400  1
  O  O66  1  0.39058500  0.22060700  0.81279400  1
  O  O67  1  0.89679200  0.72339800  0.30931700  1
  O  O68  1  0.99170500  0.14076100  0.57943400  1
  O  O69  1  0.66092700  0.48428200  0.56466900  1
  O  O70  1  0.48428200  0.66092700  0.56466900  1
  O  O71  1  0.14076100  0.99170500  0.57943400  1
  O  O72  1  0.32902100  0.81747000  0.56529900  1
  O  O73  1  0.81747000  0.32902100  0.56529900  1
  O  O74  1  0.63037300  0.96207700  0.56637900  1
  O  O75  1  0.40377000  0.73742200  0.79596400  1
  O  O76  1  0.73742200  0.40377000  0.79596400  1
  O  O77  1  0.96207700  0.63037300  0.56637900  1
  O  O78  1  0.80699200  0.80699200  0.57410600  1
  O  O79  1  0.57141800  0.57141800  0.80898100  1
  O  O80  1  0.24781400  0.91543000  0.80783200  1
  O  O81  1  0.91543000  0.24781400  0.80783200  1
  O  O82  1  0.87863000  0.72925200  0.80445900  1
  O  O83  1  0.72925200  0.87863000  0.80445900  1
