# generated using pymatgen
data_Li12MnCo3P4(CO7)4
_symmetry_space_group_name_H-M   'P 1'
_cell_length_a   8.46067129
_cell_length_b   10.02954975
_cell_length_c   6.49318900
_cell_angle_alpha   90.00000000
_cell_angle_beta   90.00000000
_cell_angle_gamma   85.11513797
_symmetry_Int_Tables_number   1
_chemical_formula_structural   Li12MnCo3P4(CO7)4
_chemical_formula_sum   'Li12 Mn1 Co3 P4 C4 O28'
_cell_volume   548.98945148
_cell_formula_units_Z   1
loop_
 _symmetry_equiv_pos_site_id
 _symmetry_equiv_pos_as_xyz
  1  'x, y, z'
loop_
 _atom_site_type_symbol
 _atom_site_label
 _atom_site_symmetry_multiplicity
 _atom_site_fract_x
 _atom_site_fract_y
 _atom_site_fract_z
 _atom_site_occupancy
  Li  Li0  1  0.09928200  0.38265500  0.25000000  1
  Li  Li1  1  0.09382500  0.88214200  0.25000000  1
  Li  Li2  1  0.27758000  0.12589400  0.02325100  1
  Li  Li3  1  0.27758000  0.12589400  0.47674900  1
  Li  Li4  1  0.27525700  0.62355000  0.02174200  1
  Li  Li5  1  0.27525700  0.62355000  0.47825800  1
  Li  Li6  1  0.72240000  0.37374300  0.52318000  1
  Li  Li7  1  0.72240000  0.37374300  0.97682000  1
  Li  Li8  1  0.72388600  0.87764500  0.52349200  1
  Li  Li9  1  0.72388600  0.87764500  0.97650800  1
  Li  Li10  1  0.90183700  0.11671500  0.75000000  1
  Li  Li11  1  0.90121400  0.61624200  0.75000000  1
  Mn  Mn12  1  0.66075000  0.61149500  0.25000000  1
  Co  Co13  1  0.33198100  0.39458000  0.75000000  1
  Co  Co14  1  0.33113800  0.89551900  0.75000000  1
  Co  Co15  1  0.66845100  0.10478800  0.25000000  1
  P  P16  1  0.41409900  0.35864200  0.25000000  1
  P  P17  1  0.41014700  0.86371000  0.25000000  1
  P  P18  1  0.58658500  0.13896600  0.75000000  1
  P  P19  1  0.58710200  0.63802300  0.75000000  1
  C  C20  1  0.03779300  0.35065000  0.75000000  1
  C  C21  1  0.03716200  0.85083500  0.75000000  1
  C  C22  1  0.96173500  0.15004100  0.25000000  1
  C  C23  1  0.96780200  0.64906700  0.25000000  1
  O  O24  1  0.07246500  0.47389000  0.75000000  1
  O  O25  1  0.10754900  0.18093900  0.25000000  1
  O  O26  1  0.07165000  0.97388100  0.75000000  1
  O  O27  1  0.15505500  0.25692200  0.75000000  1
  O  O28  1  0.11452800  0.67961600  0.25000000  1
  O  O29  1  0.15476700  0.75710100  0.75000000  1
  O  O30  1  0.31022900  0.41089200  0.06329100  1
  O  O31  1  0.31022900  0.41089200  0.43670900  1
  O  O32  1  0.30833100  0.91638300  0.06279000  1
  O  O33  1  0.30833100  0.91638300  0.43721000  1
  O  O34  1  0.42024500  0.08611000  0.75000000  1
  O  O35  1  0.43314700  0.20235000  0.25000000  1
  O  O36  1  0.41995200  0.58532800  0.75000000  1
  O  O37  1  0.42557700  0.70768200  0.25000000  1
  O  O38  1  0.56681400  0.29484500  0.75000000  1
  O  O39  1  0.58047000  0.41009000  0.25000000  1
  O  O40  1  0.56586000  0.79449700  0.75000000  1
  O  O41  1  0.57977500  0.91146200  0.25000000  1
  O  O42  1  0.69075500  0.08708500  0.93663200  1
  O  O43  1  0.69075500  0.08708500  0.56336800  1
  O  O44  1  0.69099900  0.58541500  0.56573000  1
  O  O45  1  0.69099900  0.58541500  0.93427000  1
  O  O46  1  0.84502400  0.24388000  0.25000000  1
  O  O47  1  0.89229900  0.31856200  0.75000000  1
  O  O48  1  0.85440500  0.74570500  0.25000000  1
  O  O49  1  0.92597800  0.02685000  0.25000000  1
  O  O50  1  0.89170400  0.81870600  0.75000000  1
  O  O51  1  0.93295500  0.52629900  0.25000000  1
