# generated using pymatgen
data_Er3TaO7
_symmetry_space_group_name_H-M   'P 1'
_cell_length_a   6.38787104
_cell_length_b   6.38787104
_cell_length_c   7.35658980
_cell_angle_alpha   90.00000000
_cell_angle_beta   90.00000000
_cell_angle_gamma   108.72670428
_symmetry_Int_Tables_number   1
_chemical_formula_structural   Er3TaO7
_chemical_formula_sum   'Er6 Ta2 O14'
_cell_volume   284.29332086
_cell_formula_units_Z   2
loop_
 _symmetry_equiv_pos_site_id
 _symmetry_equiv_pos_as_xyz
  1  'x, y, z'
loop_
 _atom_site_type_symbol
 _atom_site_label
 _atom_site_symmetry_multiplicity
 _atom_site_fract_x
 _atom_site_fract_y
 _atom_site_fract_z
 _atom_site_occupancy
  Er  Er0  1  0.99965081  0.46505305  0.74127122  1
  Er  Er1  1  0.53494695  0.00034919  0.75872878  1
  Er  Er2  1  0.53485846  0.53485846  0.50000000  1
  Er  Er3  1  0.46514154  0.46514154  0.00000000  1
  Er  Er4  1  0.46505305  0.99965081  0.25872878  1
  Er  Er5  1  0.00034919  0.53494695  0.24127122  1
  Ta  Ta6  1  0.00200147  0.00200147  0.50000000  1
  Ta  Ta7  1  0.99799853  0.99799853  0.00000000  1
  O  O8  1  0.07129551  0.92870449  0.25000000  1
  O  O9  1  0.05191470  0.31051768  0.45454266  1
  O  O10  1  0.08395243  0.33069005  0.02488870  1
  O  O11  1  0.36017110  0.63982890  0.25000000  1
  O  O12  1  0.37104623  0.62895377  0.75000000  1
  O  O13  1  0.33069005  0.08395243  0.97511130  1
  O  O14  1  0.31051768  0.05191470  0.54545734  1
  O  O15  1  0.68948232  0.94808530  0.04545734  1
  O  O16  1  0.66930995  0.91604757  0.47511130  1
  O  O17  1  0.62895377  0.37104623  0.25000000  1
  O  O18  1  0.63982890  0.36017110  0.75000000  1
  O  O19  1  0.91604757  0.66930995  0.52488870  1
  O  O20  1  0.94808530  0.68948232  0.95454266  1
  O  O21  1  0.92870449  0.07129551  0.75000000  1
