# generated using pymatgen
data_Rb2Be2O3
_symmetry_space_group_name_H-M   'P 1'
_cell_length_a   5.35270535
_cell_length_b   7.78546425
_cell_length_c   10.56804109
_cell_angle_alpha   90.00000000
_cell_angle_beta   90.00000000
_cell_angle_gamma   90.00000000
_symmetry_Int_Tables_number   1
_chemical_formula_structural   Rb2Be2O3
_chemical_formula_sum   'Rb8 Be8 O12'
_cell_volume   440.40510600
_cell_formula_units_Z   4
loop_
 _symmetry_equiv_pos_site_id
 _symmetry_equiv_pos_as_xyz
  1  'x, y, z'
loop_
 _atom_site_type_symbol
 _atom_site_label
 _atom_site_symmetry_multiplicity
 _atom_site_fract_x
 _atom_site_fract_y
 _atom_site_fract_z
 _atom_site_occupancy
  Rb  Rb0  1  0.25000000  0.87223429  0.08863063  1
  Rb  Rb1  1  0.75000000  0.51033903  0.11044103  1
  Rb  Rb2  1  0.25000000  0.01033903  0.38955897  1
  Rb  Rb3  1  0.75000000  0.37223429  0.41136937  1
  Rb  Rb4  1  0.25000000  0.62776571  0.58863063  1
  Rb  Rb5  1  0.75000000  0.98966097  0.61044103  1
  Rb  Rb6  1  0.25000000  0.48966097  0.88955897  1
  Rb  Rb7  1  0.75000000  0.12776571  0.91136937  1
  Be  Be8  1  0.25000000  0.27892976  0.16532368  1
  Be  Be9  1  0.75000000  0.10845970  0.20798515  1
  Be  Be10  1  0.25000000  0.60845970  0.29201485  1
  Be  Be11  1  0.75000000  0.77892976  0.33467632  1
  Be  Be12  1  0.25000000  0.22107024  0.66532368  1
  Be  Be13  1  0.75000000  0.39154030  0.70798515  1
  Be  Be14  1  0.25000000  0.89154030  0.79201485  1
  Be  Be15  1  0.75000000  0.72107024  0.83467632  1
  O  O16  1  0.25000000  0.47726818  0.18227895  1
  O  O17  1  0.99890757  0.18075162  0.15496254  1
  O  O18  1  0.50109243  0.18075162  0.15496254  1
  O  O19  1  0.00109243  0.68075162  0.34503746  1
  O  O20  1  0.49890757  0.68075162  0.34503746  1
  O  O21  1  0.75000000  0.97726818  0.31772105  1
  O  O22  1  0.25000000  0.02273182  0.68227895  1
  O  O23  1  0.99890757  0.31924838  0.65496254  1
  O  O24  1  0.50109243  0.31924838  0.65496254  1
  O  O25  1  0.49890757  0.81924838  0.84503746  1
  O  O26  1  0.00109243  0.81924838  0.84503746  1
  O  O27  1  0.75000000  0.52273182  0.81772105  1
