# generated using pymatgen
data_AsH18N3O7
_symmetry_space_group_name_H-M   'P 1'
_cell_length_a   6.31330476
_cell_length_b   6.71114318
_cell_length_c   22.59453122
_cell_angle_alpha   85.96244388
_cell_angle_beta   90.00000000
_cell_angle_gamma   90.00000000
_symmetry_Int_Tables_number   1
_chemical_formula_structural   AsH18N3O7
_chemical_formula_sum   'As4 H72 N12 O28'
_cell_volume   954.94285651
_cell_formula_units_Z   4
loop_
 _symmetry_equiv_pos_site_id
 _symmetry_equiv_pos_as_xyz
  1  'x, y, z'
loop_
 _atom_site_type_symbol
 _atom_site_label
 _atom_site_symmetry_multiplicity
 _atom_site_fract_x
 _atom_site_fract_y
 _atom_site_fract_z
 _atom_site_occupancy
  As  As0  1  0.86140546  0.79589310  0.84386581  1
  As  As1  1  0.36140546  0.20410690  0.65613419  1
  As  As2  1  0.13859454  0.20410690  0.15613419  1
  As  As3  1  0.63859454  0.79589310  0.34386581  1
  H  H4  1  0.88777591  0.73835620  0.63906300  1
  H  H5  1  0.38777591  0.26164380  0.86093700  1
  H  H6  1  0.11222409  0.26164380  0.36093700  1
  H  H7  1  0.61222409  0.73835620  0.13906300  1
  H  H8  1  0.96898260  0.97621582  0.65414724  1
  H  H9  1  0.46898260  0.02378418  0.84585276  1
  H  H10  1  0.03101740  0.02378418  0.34585276  1
  H  H11  1  0.53101740  0.97621582  0.15414724  1
  H  H12  1  0.88915917  0.20101430  0.78294709  1
  H  H13  1  0.38915917  0.79898570  0.71705291  1
  H  H14  1  0.11084083  0.79898570  0.21705291  1
  H  H15  1  0.61084083  0.20101430  0.28294709  1
  H  H16  1  0.96177620  0.28239145  0.71285851  1
  H  H17  1  0.46177620  0.71760855  0.78714149  1
  H  H18  1  0.03822380  0.71760855  0.28714149  1
  H  H19  1  0.53822380  0.28239145  0.21285851  1
  H  H20  1  0.72026163  0.88021635  0.01111946  1
  H  H21  1  0.22026163  0.11978365  0.48888054  1
  H  H22  1  0.27973837  0.11978365  0.98888054  1
  H  H23  1  0.77973837  0.88021635  0.51111946  1
  H  H24  1  0.65215423  0.64146568  0.03211074  1
  H  H25  1  0.15215423  0.35853432  0.46788926  1
  H  H26  1  0.34784577  0.35853432  0.96788926  1
  H  H27  1  0.84784577  0.64146568  0.53211074  1
  H  H28  1  0.79328533  0.19302156  0.98622532  1
  H  H29  1  0.29328533  0.80697844  0.51377468  1
  H  H30  1  0.20671467  0.80697844  0.01377468  1
  H  H31  1  0.70671467  0.19302156  0.48622532  1
  H  H32  1  0.95314960  0.40247388  0.61584249  1
  H  H33  1  0.45314960  0.59752612  0.88415751  1
  H  H34  1  0.04685040  0.59752612  0.38415751  1
  H  H35  1  0.54685040  0.40247388  0.11584249  1
  H  H36  1  0.86431251  0.19424944  0.89068570  1
  H  H37  1  0.36431251  0.80575056  0.60931430  1
  H  H38  1  0.13568749  0.80575056  0.10931430  1
  H  H39  1  0.63568749  0.19424944  0.39068570  1
  H  H40  1  0.89248135  0.80565945  0.70949789  1
  H  H41  1  0.39248135  0.19434055  0.79050211  1
  H  H42  1  0.10751865  0.19434055  0.29050211  1
  H  H43  1  0.60751865  0.80565945  0.20949789  1
  H  H44  1  0.71053920  0.90709539  0.66095006  1
  H  H45  1  0.21053920  0.09290461  0.83904994  1
  H  H46  1  0.28946080  0.09290461  0.33904994  1
  H  H47  1  0.78946080  0.90709539  0.16095006  1
  H  H48  1  0.89356779  0.45163767  0.76327765  1
  H  H49  1  0.39356779  0.54836233  0.73672235  1
  H  H50  1  0.10643221  0.54836233  0.23672235  1
  H  H51  1  0.60643221  0.45163767  0.26327765  1
  H  H52  1  0.70541148  0.30569967  0.73462424  1
  H  H53  1  0.20541148  0.69430033  0.76537576  1
  H  H54  1  0.29458852  0.69430033  0.26537576  1
  H  H55  1  0.79458852  0.30569967  0.23462424  1
  H  H56  1  0.77002785  0.70015243  0.96421449  1
  H  H57  1  0.27002785  0.29984757  0.53578551  1
  H  H58  1  0.22997215  0.29984757  0.03578551  1
  H  H59  1  0.72997215  0.70015243  0.46421449  1
  H  H60  1  0.51731424  0.77368930  0.97761997  1
  H  H61  1  0.01731424  0.22631070  0.52238003  1
  H  H62  1  0.48268576  0.22631070  0.02238003  1
  H  H63  1  0.98268576  0.77368930  0.47761997  1
  H  H64  1  0.86180196  0.18583899  0.05398316  1
  H  H65  1  0.36180196  0.81416101  0.44601684  1
  H  H66  1  0.13819804  0.81416101  0.94601684  1
  H  H67  1  0.63819804  0.18583899  0.55398316  1
  H  H68  1  0.70844833  0.43879525  0.60326092  1
  H  H69  1  0.20844833  0.56120475  0.89673908  1
  H  H70  1  0.29155167  0.56120475  0.39673908  1
  H  H71  1  0.79155167  0.43879525  0.10326092  1
  H  H72  1  0.87034184  0.41919858  0.91090476  1
  H  H73  1  0.37034184  0.58080142  0.58909524  1
  H  H74  1  0.12965816  0.58080142  0.08909524  1
  H  H75  1  0.62965816  0.41919858  0.41090476  1
  N  N76  1  0.86748642  0.85685069  0.66539272  1
  N  N77  1  0.36748642  0.14314931  0.83460728  1
  N  N78  1  0.13251358  0.14314931  0.33460728  1
  N  N79  1  0.63251358  0.85685069  0.16539272  1
  N  N80  1  0.86336505  0.31045288  0.74841343  1
  N  N81  1  0.36336505  0.68954712  0.75158657  1
  N  N82  1  0.13663495  0.68954712  0.25158657  1
  N  N83  1  0.63663495  0.31045288  0.24841343  1
  N  N84  1  0.66569123  0.74602965  0.99599874  1
  N  N85  1  0.16569123  0.25397035  0.50400126  1
  N  N86  1  0.33430877  0.25397035  0.00400126  1
  N  N87  1  0.83430877  0.74602965  0.49599874  1
  O  O88  1  0.93925260  0.69262889  0.78087467  1
  O  O89  1  0.43925260  0.30737111  0.71912533  1
  O  O90  1  0.06074740  0.30737111  0.21912533  1
  O  O91  1  0.56074740  0.69262889  0.28087467  1
  O  O92  1  0.96716588  0.66674169  0.90490946  1
  O  O93  1  0.46716588  0.33325831  0.59509054  1
  O  O94  1  0.03283412  0.33325831  0.09509054  1
  O  O95  1  0.53283412  0.66674169  0.40490946  1
  O  O96  1  0.59372910  0.78985848  0.85046298  1
  O  O97  1  0.09372910  0.21014152  0.64953702  1
  O  O98  1  0.40627090  0.21014152  0.14953702  1
  O  O99  1  0.90627090  0.78985848  0.35046298  1
  O  O100  1  0.94880240  0.03596752  0.84164727  1
  O  O101  1  0.44880240  0.96403248  0.65835273  1
  O  O102  1  0.05119760  0.96403248  0.15835273  1
  O  O103  1  0.55119760  0.03596752  0.34164727  1
  O  O104  1  0.76052868  0.12918310  0.02656729  1
  O  O105  1  0.26052868  0.87081690  0.47343271  1
  O  O106  1  0.23947132  0.87081690  0.97343271  1
  O  O107  1  0.73947132  0.12918310  0.52656729  1
  O  O108  1  0.84866709  0.50552061  0.60176270  1
  O  O109  1  0.34866709  0.49447939  0.89823730  1
  O  O110  1  0.15133291  0.49447939  0.39823730  1
  O  O111  1  0.65133291  0.50552061  0.10176270  1
  O  O112  1  0.80437454  0.28703956  0.91856989  1
  O  O113  1  0.30437454  0.71296044  0.58143011  1
  O  O114  1  0.19562546  0.71296044  0.08143011  1
  O  O115  1  0.69562546  0.28703956  0.41856989  1
