# generated using pymatgen
data_La2Se2O
_symmetry_space_group_name_H-M   'P 1'
_cell_length_a   4.18262210
_cell_length_b   7.37701765
_cell_length_c   16.52874803
_cell_angle_alpha   90.00000000
_cell_angle_beta   90.00000000
_cell_angle_gamma   90.00000000
_symmetry_Int_Tables_number   1
_chemical_formula_structural   La2Se2O
_chemical_formula_sum   'La8 Se8 O4'
_cell_volume   509.99909984
_cell_formula_units_Z   4
loop_
 _symmetry_equiv_pos_site_id
 _symmetry_equiv_pos_as_xyz
  1  'x, y, z'
loop_
 _atom_site_type_symbol
 _atom_site_label
 _atom_site_symmetry_multiplicity
 _atom_site_fract_x
 _atom_site_fract_y
 _atom_site_fract_z
 _atom_site_occupancy
  La  La0  1  0.25000000  0.69943647  0.03684580  1
  La  La1  1  0.25000000  0.25817158  0.16717663  1
  La  La2  1  0.75000000  0.75817158  0.33282337  1
  La  La3  1  0.75000000  0.19943647  0.46315420  1
  La  La4  1  0.25000000  0.80056353  0.53684580  1
  La  La5  1  0.25000000  0.24182842  0.66717663  1
  La  La6  1  0.75000000  0.74182842  0.83282337  1
  La  La7  1  0.75000000  0.30056353  0.96315420  1
  Se  Se8  1  0.75000000  0.00918963  0.10337071  1
  Se  Se9  1  0.75000000  0.54665863  0.17416492  1
  Se  Se10  1  0.25000000  0.04665863  0.32583508  1
  Se  Se11  1  0.25000000  0.50918963  0.39662929  1
  Se  Se12  1  0.75000000  0.49081037  0.60337071  1
  Se  Se13  1  0.75000000  0.95334137  0.67416492  1
  Se  Se14  1  0.25000000  0.45334137  0.82583508  1
  Se  Se15  1  0.25000000  0.99081037  0.89662929  1
  O  O16  1  0.25000000  0.37071451  0.03269556  1
  O  O17  1  0.75000000  0.87071451  0.46730444  1
  O  O18  1  0.25000000  0.12928549  0.53269556  1
  O  O19  1  0.75000000  0.62928549  0.96730444  1
