# generated using pymatgen
data_Hf2N2O
_symmetry_space_group_name_H-M   'P 1'
_cell_length_a   8.65209882
_cell_length_b   8.67414701
_cell_length_c   8.68160975
_cell_angle_alpha   109.56364823
_cell_angle_beta   109.34018671
_cell_angle_gamma   109.33416079
_symmetry_Int_Tables_number   1
_chemical_formula_structural   Hf2N2O
_chemical_formula_sum   'Hf16 N16 O8'
_cell_volume   502.64676423
_cell_formula_units_Z   8
loop_
 _symmetry_equiv_pos_site_id
 _symmetry_equiv_pos_as_xyz
  1  'x, y, z'
loop_
 _atom_site_type_symbol
 _atom_site_label
 _atom_site_symmetry_multiplicity
 _atom_site_fract_x
 _atom_site_fract_y
 _atom_site_fract_z
 _atom_site_occupancy
  Hf  Hf0  1  0.49254375  0.50359043  0.49083356  1
  Hf  Hf1  1  0.53480713  0.24296174  0.78725566  1
  Hf  Hf2  1  0.74467762  0.78863362  0.03826074  1
  Hf  Hf3  1  0.74509643  0.28024540  0.53048966  1
  Hf  Hf4  1  0.96364686  0.74882312  0.70748366  1
  Hf  Hf5  1  0.78165524  0.53250784  0.25444664  1
  Hf  Hf6  1  0.51130635  0.00413797  0.99983520  1
  Hf  Hf7  1  0.29172858  0.03212284  0.24971204  1
  Hf  Hf8  1  0.99171981  0.98449381  0.50065736  1
  Hf  Hf9  1  0.00644905  0.49768531  0.00961594  1
  Hf  Hf10  1  0.71473837  0.97196440  0.74878716  1
  Hf  Hf11  1  0.22286048  0.47220995  0.75507055  1
  Hf  Hf12  1  0.04025149  0.25731001  0.28518141  1
  Hf  Hf13  1  0.24923628  0.22115511  0.97176891  1
  Hf  Hf14  1  0.25104441  0.71497376  0.46437820  1
  Hf  Hf15  1  0.46370121  0.75015711  0.21477104  1
  N  N16  1  0.26101805  0.26757036  0.22679867  1
  N  N17  1  0.72928147  0.48840914  0.46106007  1
  N  N18  1  0.77071155  0.23211277  0.75943132  1
  N  N19  1  0.52847019  0.27413107  0.04042538  1
  N  N20  1  0.73226502  0.76455738  0.27212292  1
  N  N21  1  0.27132822  0.50797677  0.54424289  1
  N  N22  1  0.46659895  0.72689117  0.95236018  1
  N  N23  1  0.54616653  0.03979826  0.27462110  1
  N  N24  1  0.22049132  0.77324295  0.23403138  1
  N  N25  1  0.98375238  0.45082448  0.22214614  1
  N  N26  1  0.77459289  0.04147673  0.03419880  1
  N  N27  1  0.23552505  0.46289763  0.00675808  1
  N  N28  1  0.96876867  0.00958118  0.74065709  1
  N  N29  1  0.04674583  0.77460228  0.51523528  1
  N  N30  1  0.45237756  0.96852352  0.72733018  1
  N  N31  1  0.51497970  0.73804067  0.46671448  1
  O  O32  1  0.73775081  0.72071108  0.77463441  1
  O  O33  1  0.27208906  0.24037638  0.71664532  1
  O  O34  1  0.48344485  0.25904908  0.53518475  1
  O  O35  1  0.03847091  0.99581711  0.27121811  1
  O  O36  1  0.01945541  0.54952551  0.77199640  1
  O  O37  1  0.95522125  0.22855940  0.49345279  1
  O  O38  1  0.76249450  0.53827649  0.98414394  1
  O  O39  1  0.22253579  0.94407517  0.96604463  1
