# generated using pymatgen
data_NbTlO3
_symmetry_space_group_name_H-M   'P 1'
_cell_length_a   7.61100562
_cell_length_b   7.62469515
_cell_length_c   13.18232079
_cell_angle_alpha   72.97677338
_cell_angle_beta   72.60492160
_cell_angle_gamma   59.96265257
_symmetry_Int_Tables_number   1
_chemical_formula_structural   NbTlO3
_chemical_formula_sum   'Nb8 Tl8 O24'
_cell_volume   622.40980782
_cell_formula_units_Z   8
loop_
 _symmetry_equiv_pos_site_id
 _symmetry_equiv_pos_as_xyz
  1  'x, y, z'
loop_
 _atom_site_type_symbol
 _atom_site_label
 _atom_site_symmetry_multiplicity
 _atom_site_fract_x
 _atom_site_fract_y
 _atom_site_fract_z
 _atom_site_occupancy
  Nb  Nb0  1  0.98673111  0.51937400  0.00375649  1
  Nb  Nb1  1  0.01467601  0.00504228  0.00493035  1
  Nb  Nb2  1  0.50204838  0.49521823  0.99319154  1
  Nb  Nb3  1  0.23053359  0.76696950  0.74950494  1
  Nb  Nb4  1  0.49070378  0.98843019  0.49583773  1
  Nb  Nb5  1  0.50282278  0.47670394  0.51032519  1
  Nb  Nb6  1  0.99649263  0.98068273  0.49473058  1
  Nb  Nb7  1  0.73822523  0.26282267  0.24962197  1
  Tl  Tl8  1  0.73561019  0.26162602  0.75031831  1
  Tl  Tl9  1  0.66877589  0.84455608  0.75256772  1
  Tl  Tl10  1  0.15143012  0.32827024  0.74902448  1
  Tl  Tl11  1  0.00411606  0.48282153  0.50115005  1
  Tl  Tl12  1  0.25847996  0.24516705  0.24445052  1
  Tl  Tl13  1  0.83072621  0.72889446  0.26266161  1
  Tl  Tl14  1  0.50658854  0.00778202  0.99744539  1
  Tl  Tl15  1  0.31471457  0.76875812  0.24306298  1
  O  O16  1  0.71986412  0.22230795  0.97130856  1
  O  O17  1  0.09562409  0.59293993  0.84854396  1
  O  O18  1  0.03223942  0.90176362  0.65670016  1
  O  O19  1  0.09768259  0.22047838  0.96507077  1
  O  O20  1  0.39662003  0.52338272  0.66015815  1
  O  O21  1  0.72042327  0.59089026  0.97462110  1
  O  O22  1  0.21880775  0.71288377  0.46757768  1
  O  O23  1  0.47405709  0.59851814  0.84302391  1
  O  O24  1  0.08910364  0.96306615  0.84738873  1
  O  O25  1  0.77722073  0.89786664  0.53783696  1
  O  O26  1  0.40861179  0.27282359  0.52991848  1
  O  O27  1  0.40232583  0.90208321  0.65638087  1
  O  O28  1  0.60226871  0.07954956  0.34378118  1
  O  O29  1  0.58757017  0.71254320  0.47213940  1
  O  O30  1  0.90716920  0.03309361  0.15663738  1
  O  O31  1  0.52728280  0.41242091  0.16020148  1
  O  O32  1  0.21730874  0.08571411  0.47053848  1
  O  O33  1  0.77789971  0.27350292  0.53385029  1
  O  O34  1  0.28156004  0.41107726  0.03238359  1
  O  O35  1  0.96310587  0.08865657  0.34717820  1
  O  O36  1  0.59672531  0.46218028  0.34635247  1
  O  O37  1  0.90274753  0.78136083  0.03845532  1
  O  O38  1  0.91257448  0.39537102  0.15712489  1
  O  O39  1  0.28126904  0.78300729  0.03059812  1
