# generated using pymatgen
data_Hf2N2O
_symmetry_space_group_name_H-M   'P 1'
_cell_length_a   8.64803569
_cell_length_b   8.67502307
_cell_length_c   8.68143733
_cell_angle_alpha   109.54989756
_cell_angle_beta   109.52119125
_cell_angle_gamma   109.23362109
_symmetry_Int_Tables_number   1
_chemical_formula_structural   Hf2N2O
_chemical_formula_sum   'Hf16 N16 O8'
_cell_volume   502.03894516
_cell_formula_units_Z   8
loop_
 _symmetry_equiv_pos_site_id
 _symmetry_equiv_pos_as_xyz
  1  'x, y, z'
loop_
 _atom_site_type_symbol
 _atom_site_label
 _atom_site_symmetry_multiplicity
 _atom_site_fract_x
 _atom_site_fract_y
 _atom_site_fract_z
 _atom_site_occupancy
  Hf  Hf0  1  0.54326716  0.79253134  0.75898196  1
  Hf  Hf1  1  0.78764752  0.75680540  0.53194033  1
  Hf  Hf2  1  0.00501719  0.00957838  0.99730676  1
  Hf  Hf3  1  0.27750317  0.74461654  0.02144250  1
  Hf  Hf4  1  0.50893571  0.00647478  0.50853495  1
  Hf  Hf5  1  0.99794961  0.50106029  0.50049574  1
  Hf  Hf6  1  0.96435621  0.71221106  0.25407810  1
  Hf  Hf7  1  0.74742749  0.45462844  0.71837922  1
  Hf  Hf8  1  0.25213197  0.53266155  0.28566476  1
  Hf  Hf9  1  0.74757383  0.96236566  0.21238920  1
  Hf  Hf10  1  0.24568380  0.03843855  0.78727260  1
  Hf  Hf11  1  0.03080916  0.28155514  0.73909753  1
  Hf  Hf12  1  0.50771187  0.49874722  0.99795257  1
  Hf  Hf13  1  0.21467706  0.24853167  0.46755795  1
  Hf  Hf14  1  0.72436677  0.25817038  0.97569228  1
  Hf  Hf15  1  0.45458282  0.21157362  0.24282478  1
  N  N16  1  0.77105173  0.03958121  0.00769245  1
  N  N17  1  0.47918337  0.72419116  0.94787245  1
  N  N18  1  0.94957174  0.22489858  0.45863546  1
  N  N19  1  0.52912790  0.75916500  0.49039014  1
  N  N20  1  0.03197839  0.54278518  0.77090505  1
  N  N21  1  0.46479036  0.23404835  0.50701784  1
  N  N22  1  0.73019812  0.74211228  0.27379751  1
  N  N23  1  0.97222141  0.45879396  0.23043762  1
  N  N24  1  0.98596389  0.03280508  0.76204334  1
  N  N25  1  0.76884471  0.22132838  0.73644714  1
  N  N26  1  0.74096655  0.51677284  0.96583286  1
  N  N27  1  0.05092021  0.77281792  0.53747253  1
  N  N28  1  0.23547846  0.27412431  0.22570752  1
  N  N29  1  0.51731856  0.27575761  0.05076584  1
  N  N30  1  0.27283014  0.26371986  0.72872963  1
  N  N31  1  0.22919534  0.95662329  0.99545249  1
  O  O32  1  0.54571244  0.00647868  0.27625847  1
  O  O33  1  0.27206668  0.53225762  0.54724299  1
  O  O34  1  0.01573801  0.96516870  0.24017134  1
  O  O35  1  0.22696371  0.77566070  0.25700979  1
  O  O36  1  0.26019362  0.49164828  0.03870945  1
  O  O37  1  0.75968059  0.72396150  0.77037237  1
  O  O38  1  0.45174895  0.98633438  0.72434155  1
  O  O39  1  0.72861278  0.46901308  0.45708494  1
