# generated using pymatgen
data_LuTa3O9
_symmetry_space_group_name_H-M   'P 1'
_cell_length_a   7.39410680
_cell_length_b   5.16740988
_cell_length_c   8.21882338
_cell_angle_alpha   87.48595757
_cell_angle_beta   90.00000000
_cell_angle_gamma   90.00000000
_symmetry_Int_Tables_number   1
_chemical_formula_structural   LuTa3O9
_chemical_formula_sum   'Lu2 Ta6 O18'
_cell_volume   313.72567972
_cell_formula_units_Z   2
loop_
 _symmetry_equiv_pos_site_id
 _symmetry_equiv_pos_as_xyz
  1  'x, y, z'
loop_
 _atom_site_type_symbol
 _atom_site_label
 _atom_site_symmetry_multiplicity
 _atom_site_fract_x
 _atom_site_fract_y
 _atom_site_fract_z
 _atom_site_occupancy
  Lu  Lu0  1  0.25000000  0.96780737  0.43468960  1
  Lu  Lu1  1  0.75000000  0.03219263  0.56531040  1
  Ta  Ta2  1  0.00000000  0.00000000  0.00000000  1
  Ta  Ta3  1  0.50000000  0.00000000  0.00000000  1
  Ta  Ta4  1  0.00795657  0.52911675  0.69636277  1
  Ta  Ta5  1  0.49204343  0.52911675  0.69636277  1
  Ta  Ta6  1  0.99204343  0.47088325  0.30363723  1
  Ta  Ta7  1  0.50795657  0.47088325  0.30363723  1
  O  O8  1  0.25000000  0.89211113  0.97590440  1
  O  O9  1  0.93113853  0.85809633  0.78187180  1
  O  O10  1  0.56886147  0.85809633  0.78187180  1
  O  O11  1  0.95234787  0.74587225  0.46692362  1
  O  O12  1  0.54765213  0.74587225  0.46692362  1
  O  O13  1  0.25000000  0.67727485  0.64909862  1
  O  O14  1  0.93994070  0.66878562  0.11786006  1
  O  O15  1  0.56005930  0.66878562  0.11786006  1
  O  O16  1  0.25000000  0.58792894  0.31370267  1
  O  O17  1  0.75000000  0.41207106  0.68629733  1
  O  O18  1  0.06005930  0.33121438  0.88213994  1
  O  O19  1  0.43994070  0.33121438  0.88213994  1
  O  O20  1  0.75000000  0.32272515  0.35090138  1
  O  O21  1  0.04765213  0.25412775  0.53307638  1
  O  O22  1  0.45234787  0.25412775  0.53307638  1
  O  O23  1  0.06886147  0.14190367  0.21812820  1
  O  O24  1  0.43113853  0.14190367  0.21812820  1
  O  O25  1  0.75000000  0.10788887  0.02409560  1
