# generated using pymatgen
data_Dy2SO2
_symmetry_space_group_name_H-M   'P 1'
_cell_length_a   3.77309732
_cell_length_b   3.77308846
_cell_length_c   13.30976056
_cell_angle_alpha   89.99997902
_cell_angle_beta   90.00001873
_cell_angle_gamma   120.00009199
_symmetry_Int_Tables_number   1
_chemical_formula_structural   Dy2SO2
_chemical_formula_sum   'Dy4 S2 O4'
_cell_volume   164.09504445
_cell_formula_units_Z   2
loop_
 _symmetry_equiv_pos_site_id
 _symmetry_equiv_pos_as_xyz
  1  'x, y, z'
loop_
 _atom_site_type_symbol
 _atom_site_label
 _atom_site_symmetry_multiplicity
 _atom_site_fract_x
 _atom_site_fract_y
 _atom_site_fract_z
 _atom_site_occupancy
  Dy  Dy0  1  0.33333429  0.66670562  0.89241317  1
  Dy  Dy1  1  0.33333433  0.66667192  0.60758785  1
  Dy  Dy2  1  0.66666467  0.33333860  0.39241215  1
  Dy  Dy3  1  0.66666571  0.33337234  0.10758783  1
  S  S4  1  0.99999620  0.00001552  0.24999997  1
  S  S5  1  0.00000280  0.00001832  0.75000003  1
  O  O6  1  0.33333168  0.66669942  0.06446403  1
  O  O7  1  0.33333149  0.66667001  0.43553563  1
  O  O8  1  0.66666732  0.33336973  0.93553597  1
  O  O9  1  0.66666751  0.33334052  0.56446437  1
