# generated using pymatgen
data_La2(GeO3)3
_symmetry_space_group_name_H-M   'P 1'
_cell_length_a   5.74072768
_cell_length_b   7.72045631
_cell_length_c   8.83620783
_cell_angle_alpha   108.11630035
_cell_angle_beta   108.28600576
_cell_angle_gamma   91.35874929
_symmetry_Int_Tables_number   1
_chemical_formula_structural   La2(GeO3)3
_chemical_formula_sum   'La4 Ge6 O18'
_cell_volume   350.21375037
_cell_formula_units_Z   2
loop_
 _symmetry_equiv_pos_site_id
 _symmetry_equiv_pos_as_xyz
  1  'x, y, z'
loop_
 _atom_site_type_symbol
 _atom_site_label
 _atom_site_symmetry_multiplicity
 _atom_site_fract_x
 _atom_site_fract_y
 _atom_site_fract_z
 _atom_site_occupancy
  La  La0  1  0.86784241  0.79975285  0.78235430  1
  La  La1  1  0.13215759  0.20024715  0.21764570  1
  La  La2  1  0.19197530  0.81856737  0.41671211  1
  La  La3  1  0.80802470  0.18143263  0.58328789  1
  Ge  Ge4  1  0.76233050  0.48765091  0.99837259  1
  Ge  Ge5  1  0.23766950  0.51234909  0.00162741  1
  Ge  Ge6  1  0.57270147  0.92606184  0.14539722  1
  Ge  Ge7  1  0.42729853  0.07393816  0.85460278  1
  Ge  Ge8  1  0.66177313  0.51765817  0.33912805  1
  Ge  Ge9  1  0.33822687  0.48234183  0.66087195  1
  O  O10  1  0.70793209  0.00704897  0.99975143  1
  O  O11  1  0.29206791  0.99295103  0.00024857  1
  O  O12  1  0.01142518  0.67577818  0.04541041  1
  O  O13  1  0.98857482  0.32422182  0.95458959  1
  O  O14  1  0.53238009  0.67236799  0.04569116  1
  O  O15  1  0.46761991  0.32763201  0.95430884  1
  O  O16  1  0.86743881  0.48492445  0.22137917  1
  O  O17  1  0.13256119  0.51507555  0.77862083  1
  O  O18  1  0.60615247  0.32361625  0.38524627  1
  O  O19  1  0.39384753  0.67638375  0.61475373  1
  O  O20  1  0.87801436  0.98841974  0.29986193  1
  O  O21  1  0.12198564  0.01158026  0.70013807  1
  O  O22  1  0.35074333  0.53511813  0.23103079  1
  O  O23  1  0.64925667  0.46488187  0.76896921  1
  O  O24  1  0.57712752  0.02867985  0.69613170  1
  O  O25  1  0.42287248  0.97132015  0.30386830  1
  O  O26  1  0.81425889  0.72068564  0.49566413  1
  O  O27  1  0.18574111  0.27931436  0.50433587  1
