# generated using pymatgen
data_Rb2Nb3Cl7O5
_symmetry_space_group_name_H-M   'P 1'
_cell_length_a   9.75144006
_cell_length_b   9.75144006
_cell_length_c   11.32404034
_cell_angle_alpha   71.34652800
_cell_angle_beta   71.34652800
_cell_angle_gamma   55.20745878
_symmetry_Int_Tables_number   1
_chemical_formula_structural   Rb2Nb3Cl7O5
_chemical_formula_sum   'Rb4 Nb6 Cl14 O10'
_cell_volume   824.69428014
_cell_formula_units_Z   2
loop_
 _symmetry_equiv_pos_site_id
 _symmetry_equiv_pos_as_xyz
  1  'x, y, z'
loop_
 _atom_site_type_symbol
 _atom_site_label
 _atom_site_symmetry_multiplicity
 _atom_site_fract_x
 _atom_site_fract_y
 _atom_site_fract_z
 _atom_site_occupancy
  Rb  Rb0  1  0.15837500  0.24510800  0.14083900  1
  Rb  Rb1  1  0.84072600  0.75211400  0.85883300  1
  Rb  Rb2  1  0.75627500  0.84369500  0.35467500  1
  Rb  Rb3  1  0.24188200  0.15713500  0.64528500  1
  Nb  Nb4  1  0.53519900  0.46200300  0.25442000  1
  Nb  Nb5  1  0.78083900  0.20876100  0.97573600  1
  Nb  Nb6  1  0.79357200  0.21733300  0.52607000  1
  Nb  Nb7  1  0.20521200  0.78814900  0.47761700  1
  Nb  Nb8  1  0.46524600  0.53942300  0.74649500  1
  Nb  Nb9  1  0.21275400  0.79678700  0.02391300  1
  Cl  Cl10  1  0.05742800  0.63834100  0.12560300  1
  Cl  Cl11  1  0.93983800  0.36454300  0.87341000  1
  Cl  Cl12  1  0.42653900  0.27624000  0.32842700  1
  Cl  Cl13  1  0.90946700  0.08922700  0.75388700  1
  Cl  Cl14  1  0.63841500  0.05415300  0.04664900  1
  Cl  Cl15  1  0.94923700  0.35793900  0.45857400  1
  Cl  Cl16  1  0.06283800  0.63488100  0.54188500  1
  Cl  Cl17  1  0.28274600  0.41713800  0.82870200  1
  Cl  Cl18  1  0.58425800  0.71750700  0.66786000  1
  Cl  Cl19  1  0.64507600  0.05839700  0.62691700  1
  Cl  Cl20  1  0.08815700  0.90803300  0.24846900  1
  Cl  Cl21  1  0.36126300  0.93316300  0.37380700  1
  Cl  Cl22  1  0.71889400  0.58001500  0.17288300  1
  Cl  Cl23  1  0.35727300  0.94797100  0.95993200  1
  O  O24  1  0.29213100  0.70554500  0.62140700  1
  O  O25  1  0.40299900  0.60376300  0.12148800  1
  O  O26  1  0.60608100  0.39038200  0.87396400  1
  O  O27  1  0.29146700  0.71573500  0.87493200  1
  O  O28  1  0.71165500  0.28517300  0.12535600  1
  O  O29  1  0.99491200  0.00550000  0.99863800  1
  O  O30  1  0.71523200  0.28718400  0.38332700  1
  O  O31  1  0.59804600  0.40143400  0.62825800  1
  O  O32  1  0.40024000  0.59607200  0.37200200  1
  O  O33  1  0.00523600  0.99426500  0.49968400  1
