# generated using pymatgen
data_CrH14N4Cl3O
_symmetry_space_group_name_H-M   'P 1'
_cell_length_a   13.06239570
_cell_length_b   10.50231062
_cell_length_c   6.63577142
_cell_angle_alpha   90.00000000
_cell_angle_beta   90.00000399
_cell_angle_gamma   90.00000000
_symmetry_Int_Tables_number   1
_chemical_formula_structural   CrH14N4Cl3O
_chemical_formula_sum   'Cr4 H56 N16 Cl12 O4'
_cell_volume   910.33053906
_cell_formula_units_Z   4
loop_
 _symmetry_equiv_pos_site_id
 _symmetry_equiv_pos_as_xyz
  1  'x, y, z'
loop_
 _atom_site_type_symbol
 _atom_site_label
 _atom_site_symmetry_multiplicity
 _atom_site_fract_x
 _atom_site_fract_y
 _atom_site_fract_z
 _atom_site_occupancy
  Cr  Cr0  1  0.58843316  0.75000000  0.81985947  1
  Cr  Cr1  1  0.08843316  0.75000000  0.68014053  1
  Cr  Cr2  1  0.41161298  0.25000000  0.17991560  1
  Cr  Cr3  1  0.91161298  0.25000000  0.32008340  1
  H  H4  1  0.68419385  0.82558981  0.13754536  1
  H  H5  1  0.18419485  0.67441019  0.36245464  1
  H  H6  1  0.31592476  0.32558697  0.86227679  1
  H  H7  1  0.81592476  0.17441303  0.63772221  1
  H  H8  1  0.31592476  0.17441303  0.86227679  1
  H  H9  1  0.81592476  0.32558697  0.63772221  1
  H  H10  1  0.68419385  0.67441019  0.13754536  1
  H  H11  1  0.18419485  0.82558981  0.36245464  1
  H  H12  1  0.77764145  0.75000000  0.69358304  1
  H  H13  1  0.27764145  0.75000000  0.80641696  1
  H  H14  1  0.22225784  0.25000000  0.30608883  1
  H  H15  1  0.72225884  0.25000000  0.19391117  1
  H  H16  1  0.70840196  0.67165116  0.52882569  1
  H  H17  1  0.20840196  0.82834884  0.97117431  1
  H  H18  1  0.29143398  0.17166138  0.47092698  1
  H  H19  1  0.79143398  0.32833862  0.02907302  1
  H  H20  1  0.29143398  0.32833862  0.47092698  1
  H  H21  1  0.79143398  0.17166138  0.02907302  1
  H  H22  1  0.70840196  0.82834884  0.52882569  1
  H  H23  1  0.20840196  0.67165116  0.97117431  1
  H  H24  1  0.51458398  0.75000000  0.44104574  1
  H  H25  1  0.01458398  0.75000000  0.05895426  1
  H  H26  1  0.48521061  0.25000000  0.55906067  1
  H  H27  1  0.98521061  0.25000000  0.94093833  1
  H  H28  1  0.43830898  0.67178443  0.59438107  1
  H  H29  1  0.93830898  0.82821557  0.90561893  1
  H  H30  1  0.56157176  0.17177897  0.40586106  1
  H  H31  1  0.06157176  0.32822103  0.09413894  1
  H  H32  1  0.56157176  0.32822103  0.40586106  1
  H  H33  1  0.06157176  0.17177897  0.09413894  1
  H  H34  1  0.43830898  0.82821557  0.59438107  1
  H  H35  1  0.93830898  0.67178443  0.90561893  1
  H  H36  1  0.52227454  0.98534055  0.78081196  1
  H  H37  1  0.02227454  0.51465945  0.71918804  1
  H  H38  1  0.47774182  0.48536785  0.21939947  1
  H  H39  1  0.97774182  0.01463215  0.28060053  1
  H  H40  1  0.47774182  0.01463215  0.21939947  1
  H  H41  1  0.97774182  0.48536785  0.28060053  1
  H  H42  1  0.52227454  0.51465945  0.78081196  1
  H  H43  1  0.02227454  0.98534055  0.71918804  1
  H  H44  1  0.60948231  0.98325544  0.95867958  1
  H  H45  1  0.10948231  0.51674456  0.54132042  1
  H  H46  1  0.39071016  0.48327464  0.04120688  1
  H  H47  1  0.89071016  0.01672536  0.45879312  1
  H  H48  1  0.39071016  0.01672536  0.04120688  1
  H  H49  1  0.89071016  0.48327464  0.45879312  1
  H  H50  1  0.60948231  0.51674456  0.95867958  1
  H  H51  1  0.10948231  0.98325544  0.54132042  1
  H  H52  1  0.64459653  0.98474043  0.72280208  1
  H  H53  1  0.14459653  0.51525957  0.77719892  1
  H  H54  1  0.35535718  0.48469933  0.27692907  1
  H  H55  1  0.85535718  0.01530067  0.22307093  1
  H  H56  1  0.35535718  0.01530067  0.27692907  1
  H  H57  1  0.85535718  0.48469933  0.22307093  1
  H  H58  1  0.64459653  0.51525957  0.72280208  1
  H  H59  1  0.14459653  0.98474043  0.77719892  1
  N  N60  1  0.59180416  0.94749868  0.81946142  1
  N  N61  1  0.09180416  0.55250132  0.68053858  1
  N  N62  1  0.40826210  0.44749888  0.18047802  1
  N  N63  1  0.90826210  0.05250112  0.31952198  1
  N  N64  1  0.40826210  0.05250112  0.18047802  1
  N  N65  1  0.90826210  0.44749888  0.31952198  1
  N  N66  1  0.59180416  0.55250132  0.81946142  1
  N  N67  1  0.09180416  0.94749868  0.68053858  1
  N  N68  1  0.70905120  0.75000000  0.62096418  1
  N  N69  1  0.20905120  0.75000000  0.87903582  1
  N  N70  1  0.29082641  0.25000000  0.37880150  1
  N  N71  1  0.79082641  0.25000000  0.12119850  1
  N  N72  1  0.48494293  0.75000000  0.58343182  1
  N  N73  1  0.98494293  0.75000000  0.91656818  1
  N  N74  1  0.51495005  0.25000000  0.41673540  1
  N  N75  1  0.01495005  0.25000000  0.08326360  1
  Cl  Cl76  1  0.45412517  0.75000000  0.04883900  1
  Cl  Cl77  1  0.95412517  0.75000000  0.45116100  1
  Cl  Cl78  1  0.54594530  0.25000000  0.95143891  1
  Cl  Cl79  1  0.04594530  0.25000000  0.54856209  1
  Cl  Cl80  1  0.84608919  0.01552883  0.81246863  1
  Cl  Cl81  1  0.34608919  0.48447117  0.68753137  1
  Cl  Cl82  1  0.15398707  0.51552549  0.18756469  1
  Cl  Cl83  1  0.65398707  0.98447451  0.31243531  1
  Cl  Cl84  1  0.15398707  0.98447451  0.18756469  1
  Cl  Cl85  1  0.65398707  0.51552549  0.31243531  1
  Cl  Cl86  1  0.84608919  0.48447117  0.81246863  1
  Cl  Cl87  1  0.34608919  0.01552883  0.68753137  1
  O  O88  1  0.69195647  0.75000000  0.04923352  1
  O  O89  1  0.19195647  0.75000000  0.45076648  1
  O  O90  1  0.30817472  0.25000000  0.95057484  1
  O  O91  1  0.80817472  0.25000000  0.54942516  1
