# generated using pymatgen
data_Na3SbO4
_symmetry_space_group_name_H-M   'P 1'
_cell_length_a   5.41565206
_cell_length_b   5.75387704
_cell_length_c   6.54645147
_cell_angle_alpha   90.00000000
_cell_angle_beta   90.00000000
_cell_angle_gamma   109.46209623
_symmetry_Int_Tables_number   1
_chemical_formula_structural   Na3SbO4
_chemical_formula_sum   'Na6 Sb2 O8'
_cell_volume   192.33816515
_cell_formula_units_Z   2
loop_
 _symmetry_equiv_pos_site_id
 _symmetry_equiv_pos_as_xyz
  1  'x, y, z'
loop_
 _atom_site_type_symbol
 _atom_site_label
 _atom_site_symmetry_multiplicity
 _atom_site_fract_x
 _atom_site_fract_y
 _atom_site_fract_z
 _atom_site_occupancy
  Na  Na0  1  0.75000000  0.00000000  0.38500666  1
  Na  Na1  1  0.25000000  0.50000000  0.39965746  1
  Na  Na2  1  0.75000000  0.50000000  0.12491935  1
  Na  Na3  1  0.25000000  0.50000000  0.87508065  1
  Na  Na4  1  0.25000000  0.00000000  0.61499334  1
  Na  Na5  1  0.75000000  0.50000000  0.60034254  1
  Sb  Sb6  1  0.75000000  0.00000000  0.86810193  1
  Sb  Sb7  1  0.25000000  0.00000000  0.13189807  1
  O  O8  1  0.96038040  0.22835394  0.66570168  1
  O  O9  1  0.53961960  0.77164606  0.66570168  1
  O  O10  1  0.03961960  0.77164606  0.33429832  1
  O  O11  1  0.46038040  0.22835394  0.33429832  1
  O  O12  1  0.49875165  0.19701738  0.90302741  1
  O  O13  1  0.00124835  0.80298262  0.90302741  1
  O  O14  1  0.99875165  0.19701738  0.09697259  1
  O  O15  1  0.50124835  0.80298262  0.09697259  1
