# generated using pymatgen
data_Ho3ReO8
_symmetry_space_group_name_H-M   'P 1'
_cell_length_a   5.98263997
_cell_length_b   7.15798692
_cell_length_c   14.30003506
_cell_angle_alpha   68.61900870
_cell_angle_beta   90.00000000
_cell_angle_gamma   90.00000000
_symmetry_Int_Tables_number   1
_chemical_formula_structural   Ho3ReO8
_chemical_formula_sum   'Ho12 Re4 O32'
_cell_volume   570.23389204
_cell_formula_units_Z   4
loop_
 _symmetry_equiv_pos_site_id
 _symmetry_equiv_pos_as_xyz
  1  'x, y, z'
loop_
 _atom_site_type_symbol
 _atom_site_label
 _atom_site_symmetry_multiplicity
 _atom_site_fract_x
 _atom_site_fract_y
 _atom_site_fract_z
 _atom_site_occupancy
  Ho  Ho0  1  0.19988439  0.33850468  0.94497242  1
  Ho  Ho1  1  0.74237955  0.59391034  0.79781154  1
  Ho  Ho2  1  0.68994226  0.10770524  0.83270343  1
  Ho  Ho3  1  0.18994226  0.89229476  0.66729657  1
  Ho  Ho4  1  0.24237955  0.40608966  0.70218846  1
  Ho  Ho5  1  0.69988439  0.66149532  0.55502758  1
  Ho  Ho6  1  0.30011561  0.33850468  0.44497242  1
  Ho  Ho7  1  0.75762045  0.59391034  0.29781154  1
  Ho  Ho8  1  0.81005774  0.10770524  0.33270343  1
  Ho  Ho9  1  0.31005774  0.89229476  0.16729657  1
  Ho  Ho10  1  0.25762045  0.40608966  0.20218846  1
  Ho  Ho11  1  0.80011561  0.66149532  0.05502758  1
  Re  Re12  1  0.24588781  0.82088962  0.91030171  1
  Re  Re13  1  0.74588781  0.17911038  0.58969829  1
  Re  Re14  1  0.25411219  0.82088962  0.41030171  1
  Re  Re15  1  0.75411219  0.17911038  0.08969829  1
  O  O16  1  0.30266800  0.97826416  0.98161959  1
  O  O17  1  0.94549134  0.87953672  0.91119984  1
  O  O18  1  0.80629202  0.41785925  0.97887685  1
  O  O19  1  0.54697453  0.74771691  0.90417252  1
  O  O20  1  0.14720866  0.66546220  0.82918316  1
  O  O21  1  0.47208459  0.35225126  0.84288229  1
  O  O22  1  0.97196606  0.31115828  0.82698750  1
  O  O23  1  0.79739231  0.96515900  0.71463395  1
  O  O24  1  0.29739231  0.03484100  0.78536605  1
  O  O25  1  0.47196606  0.68884172  0.67301250  1
  O  O26  1  0.97208459  0.64774874  0.65711771  1
  O  O27  1  0.64720866  0.33453780  0.67081684  1
  O  O28  1  0.19733200  0.97826416  0.48161959  1
  O  O29  1  0.04697453  0.25228309  0.59582748  1
  O  O30  1  0.30629202  0.58214075  0.52112315  1
  O  O31  1  0.44549134  0.12046328  0.58880016  1
  O  O32  1  0.55450866  0.87953672  0.41119984  1
  O  O33  1  0.69370798  0.41785925  0.47887685  1
  O  O34  1  0.95302547  0.74771691  0.40417252  1
  O  O35  1  0.80266800  0.02173584  0.51838041  1
  O  O36  1  0.35279134  0.66546220  0.32918316  1
  O  O37  1  0.02791541  0.35225126  0.34288229  1
  O  O38  1  0.52803394  0.31115828  0.32698750  1
  O  O39  1  0.70260769  0.96515900  0.21463395  1
  O  O40  1  0.20260769  0.03484100  0.28536605  1
  O  O41  1  0.02803394  0.68884172  0.17301250  1
  O  O42  1  0.52791541  0.64774874  0.15711771  1
  O  O43  1  0.85279134  0.33453780  0.17081684  1
  O  O44  1  0.45302547  0.25228309  0.09582748  1
  O  O45  1  0.19370798  0.58214075  0.02112315  1
  O  O46  1  0.05450866  0.12046328  0.08880016  1
  O  O47  1  0.69733200  0.02173584  0.01838041  1
