# generated using pymatgen
data_CsVH24(SO10)2
_symmetry_space_group_name_H-M   'P 1'
_cell_length_a   12.32354200
_cell_length_b   12.32354200
_cell_length_c   12.32354200
_cell_angle_alpha   90.00035497
_cell_angle_beta   90.00035497
_cell_angle_gamma   89.99964503
_symmetry_Int_Tables_number   1
_chemical_formula_structural   CsVH24(SO10)2
_chemical_formula_sum   'Cs4 V4 H96 S8 O80'
_cell_volume   1871.57247146
_cell_formula_units_Z   4
loop_
 _symmetry_equiv_pos_site_id
 _symmetry_equiv_pos_as_xyz
  1  'x, y, z'
loop_
 _atom_site_type_symbol
 _atom_site_label
 _atom_site_symmetry_multiplicity
 _atom_site_fract_x
 _atom_site_fract_y
 _atom_site_fract_z
 _atom_site_occupancy
  Cs  Cs0  1  0.00000000  -0.00000000  0.50000000  1
  Cs  Cs1  1  0.00000000  0.50000000  -0.00000000  1
  Cs  Cs2  1  0.50000000  -0.00000000  -0.00000000  1
  Cs  Cs3  1  0.50000000  0.50000000  0.50000000  1
  V  V4  1  0.50000000  0.50000000  -0.00000000  1
  V  V5  1  0.50000000  -0.00000000  0.50000000  1
  V  V6  1  0.00000000  0.50000000  0.50000000  1
  V  V7  1  0.00000000  -0.00000000  -0.00000000  1
  H  H8  1  0.22045380  0.50754522  0.23238830  1
  H  H9  1  0.77956176  0.00753648  0.26768246  1
  H  H10  1  0.27958701  0.49244022  0.73234022  1
  H  H11  1  0.72040725  0.99245119  0.76760125  1
  H  H12  1  0.23239875  0.22040725  0.50754881  1
  H  H13  1  0.26765978  0.77958701  0.00755978  1
  H  H14  1  0.73231754  0.27956176  0.49246352  1
  H  H15  1  0.76761170  0.72045380  0.99245478  1
  H  H16  1  0.50753648  0.23231754  0.22043824  1
  H  H17  1  0.00754522  0.26761170  0.77954620  1
  H  H18  1  0.49245119  0.73239875  0.27959275  1
  H  H19  1  0.99244022  0.76765978  0.72041299  1
  H  H20  1  0.77954620  0.49245478  0.76761170  1
  H  H21  1  0.22043824  0.99246352  0.73231754  1
  H  H22  1  0.72041299  0.50755978  0.26765978  1
  H  H23  1  0.27959275  0.00754881  0.23239875  1
  H  H24  1  0.76760125  0.77959275  0.49245119  1
  H  H25  1  0.73234022  0.22041299  0.99244022  1
  H  H26  1  0.26768246  0.72043824  0.50753648  1
  H  H27  1  0.23238830  0.27954620  0.00754522  1
  H  H28  1  0.49246352  0.76768246  0.77956176  1
  H  H29  1  0.99245478  0.73238830  0.22045380  1
  H  H30  1  0.50754881  0.26760125  0.72040725  1
  H  H31  1  0.00755978  0.23234022  0.27958701  1
  H  H32  1  0.18363213  0.62735222  0.22319715  1
  H  H33  1  0.81640278  0.12733121  0.27685540  1
  H  H34  1  0.31641700  0.37263763  0.72314428  1
  H  H35  1  0.68357603  0.87265083  0.77679077  1
  H  H36  1  0.22320923  0.18357603  0.62734917  1
  H  H37  1  0.27685572  0.81641700  0.12736237  1
  H  H38  1  0.72314460  0.31640278  0.37266879  1
  H  H39  1  0.77680285  0.68363213  0.87264778  1
  H  H40  1  0.62733121  0.22314460  0.18359722  1
  H  H41  1  0.12735222  0.27680285  0.81636787  1
  H  H42  1  0.37265083  0.72320923  0.31642397  1
  H  H43  1  0.87263763  0.77685572  0.68358300  1
  H  H44  1  0.81636787  0.37264778  0.77680285  1
  H  H45  1  0.18359722  0.87266879  0.72314460  1
  H  H46  1  0.68358300  0.62736237  0.27685572  1
  H  H47  1  0.31642397  0.12734917  0.22320923  1
  H  H48  1  0.77679077  0.81642397  0.37265083  1
  H  H49  1  0.72314428  0.18358300  0.87263763  1
  H  H50  1  0.27685540  0.68359722  0.62733121  1
  H  H51  1  0.22319715  0.31636787  0.12735222  1
  H  H52  1  0.37266879  0.77685540  0.81640278  1
  H  H53  1  0.87264778  0.72319715  0.18363213  1
  H  H54  1  0.62734917  0.27679077  0.68357603  1
  H  H55  1  0.12736237  0.22314428  0.31641700  1
  H  H56  1  0.47668031  0.71030517  0.93647236  1
  H  H57  1  0.52333574  0.21030866  0.56350890  1
  H  H58  1  0.02335773  0.28969718  0.43649576  1
  H  H59  1  0.97666765  0.78971042  0.06352214  1
  H  H60  1  0.93647786  0.47666765  0.71028958  1
  H  H61  1  0.56350424  0.52335773  0.21030282  1
  H  H62  1  0.43649110  0.02333574  0.28969134  1
  H  H63  1  0.06352764  0.97668031  0.78969483  1
  H  H64  1  0.71030866  0.93649110  0.47666426  1
  H  H65  1  0.21030517  0.56352764  0.52331969  1
  H  H66  1  0.28971042  0.43647786  0.02333235  1
  H  H67  1  0.78969718  0.06350424  0.97664227  1
  H  H68  1  0.52331969  0.28969483  0.06352764  1
  H  H69  1  0.47666426  0.78969134  0.43649110  1
  H  H70  1  0.97664227  0.71030282  0.56350424  1
  H  H71  1  0.02333235  0.21028958  0.93647786  1
  H  H72  1  0.06352214  0.52333235  0.28971042  1
  H  H73  1  0.43649576  0.47664227  0.78969718  1
  H  H74  1  0.56350890  0.97666426  0.71030866  1
  H  H75  1  0.93647236  0.02331969  0.21030517  1
  H  H76  1  0.28969134  0.06350890  0.52333574  1
  H  H77  1  0.78969483  0.43647236  0.47668031  1
  H  H78  1  0.71028958  0.56352214  0.97666765  1
  H  H79  1  0.21030282  0.93649576  0.02335773  1
  H  H80  1  0.52549041  0.70590591  0.06082448  1
  H  H81  1  0.47448723  0.20589341  0.43915970  1
  H  H82  1  0.97446982  0.29409854  0.56081662  1
  H  H83  1  0.02552255  0.79410153  0.93917924  1
  H  H84  1  0.06082076  0.52552255  0.70589847  1
  H  H85  1  0.43918338  0.47446982  0.20590146  1
  H  H86  1  0.56084030  0.97448723  0.29410659  1
  H  H87  1  0.93917552  0.02549041  0.79409409  1
  H  H88  1  0.70589341  0.06084030  0.52551277  1
  H  H89  1  0.20590591  0.43917552  0.47450959  1
  H  H90  1  0.29410153  0.56082076  0.97447745  1
  H  H91  1  0.79409854  0.93918338  0.02553018  1
  H  H92  1  0.47450959  0.29409409  0.93917552  1
  H  H93  1  0.52551277  0.79410659  0.56084030  1
  H  H94  1  0.02553018  0.70590146  0.43918338  1
  H  H95  1  0.97447745  0.20589847  0.06082076  1
  H  H96  1  0.93917924  0.47447745  0.29410153  1
  H  H97  1  0.56081662  0.52553018  0.79409854  1
  H  H98  1  0.43915970  0.02551277  0.70589341  1
  H  H99  1  0.06082448  0.97450959  0.20590591  1
  H  H100  1  0.29410659  0.93915970  0.47448723  1
  H  H101  1  0.79409409  0.56082448  0.52549041  1
  H  H102  1  0.70589847  0.43917924  0.02552255  1
  H  H103  1  0.20590146  0.06081662  0.97446982  1
  S  S104  1  0.17408379  0.82596086  0.32595261  1
  S  S105  1  0.82592483  0.32592483  0.17407517  1
  S  S106  1  0.32596086  0.17404739  0.82591621  1
  S  S107  1  0.67404739  0.67408379  0.67403914  1
  S  S108  1  0.82591621  0.17403914  0.67404739  1
  S  S109  1  0.17407517  0.67407517  0.82592483  1
  S  S110  1  0.67403914  0.82595261  0.17408379  1
  S  S111  1  0.32595261  0.32591621  0.32596086  1
  O  O112  1  0.24361240  0.75644272  0.25640791  1
  O  O113  1  0.75639928  0.25639928  0.24360072  1
  O  O114  1  0.25644272  0.24359209  0.75638760  1
  O  O115  1  0.74359209  0.74361240  0.74355728  1
  O  O116  1  0.75638760  0.24355728  0.74359209  1
  O  O117  1  0.24360072  0.74360072  0.75639928  1
  O  O118  1  0.74355728  0.75640791  0.24361240  1
  O  O119  1  0.25640791  0.25638760  0.25644272  1
  O  O120  1  0.06432177  0.77849807  0.33352454  1
  O  O121  1  0.93568803  0.27846664  0.16649613  1
  O  O122  1  0.43572505  0.22148319  0.83349982  1
  O  O123  1  0.56429125  0.72153757  0.66649245  1
  O  O124  1  0.33350755  0.06429125  0.77846243  1
  O  O125  1  0.16650018  0.93572505  0.27851681  1
  O  O126  1  0.83350387  0.43568803  0.22153336  1
  O  O127  1  0.66647546  0.56432177  0.72150193  1
  O  O128  1  0.77846664  0.33350387  0.06431197  1
  O  O129  1  0.27849807  0.16647546  0.93567823  1
  O  O130  1  0.22153757  0.83350755  0.43570875  1
  O  O131  1  0.72148319  0.66650018  0.56427495  1
  O  O132  1  0.93567823  0.22150193  0.66647546  1
  O  O133  1  0.06431197  0.72153336  0.83350387  1
  O  O134  1  0.56427495  0.77851681  0.16650018  1
  O  O135  1  0.43570875  0.27846243  0.33350755  1
  O  O136  1  0.66649245  0.93570875  0.22153757  1
  O  O137  1  0.83349982  0.06427495  0.72148319  1
  O  O138  1  0.16649613  0.56431197  0.77846664  1
  O  O139  1  0.33352454  0.43567823  0.27849807  1
  O  O140  1  0.22153336  0.66649613  0.93568803  1
  O  O141  1  0.72150193  0.83352454  0.06432177  1
  O  O142  1  0.77846243  0.16649245  0.56429125  1
  O  O143  1  0.27851681  0.33349982  0.43572505  1
  O  O144  1  0.15842051  0.55291902  0.21128061  1
  O  O145  1  0.84161096  0.05289577  0.28877421  1
  O  O146  1  0.34162650  0.44707359  0.71123877  1
  O  O147  1  0.65837462  0.94708287  0.78872972  1
  O  O148  1  0.21127028  0.15837462  0.55291713  1
  O  O149  1  0.28876123  0.84162650  0.05292641  1
  O  O150  1  0.71122579  0.34161096  0.44710423  1
  O  O151  1  0.78871939  0.65842051  0.94708098  1
  O  O152  1  0.55289577  0.21122579  0.15838904  1
  O  O153  1  0.05291902  0.28871939  0.84157949  1
  O  O154  1  0.44708287  0.71127028  0.34162538  1
  O  O155  1  0.94707359  0.78876123  0.65837350  1
  O  O156  1  0.84157949  0.44708098  0.78871939  1
  O  O157  1  0.15838904  0.94710423  0.71122579  1
  O  O158  1  0.65837350  0.55292641  0.28876123  1
  O  O159  1  0.34162538  0.05291713  0.21127028  1
  O  O160  1  0.78872972  0.84162538  0.44708287  1
  O  O161  1  0.71123877  0.15837350  0.94707359  1
  O  O162  1  0.28877421  0.65838904  0.55289577  1
  O  O163  1  0.21128061  0.34157949  0.05291902  1
  O  O164  1  0.44710423  0.78877421  0.84161096  1
  O  O165  1  0.94708098  0.71128061  0.15842051  1
  O  O166  1  0.55291713  0.28872972  0.65837462  1
  O  O167  1  0.05292641  0.21123877  0.34162650  1
  O  O168  1  0.50118393  0.66214508  0.99819013  1
  O  O169  1  0.49881176  0.16214178  0.50179720  1
  O  O170  1  0.99883565  0.33785983  0.49820664  1
  O  O171  1  0.00118698  0.83786104  0.00180488  1
  O  O172  1  0.99819512  0.50118698  0.66213896  1
  O  O173  1  0.50179336  0.49883565  0.16214017  1
  O  O174  1  0.49820280  0.99881176  0.33785822  1
  O  O175  1  0.00180987  0.00118393  0.83785492  1
  O  O176  1  0.66214178  0.99820280  0.50118824  1
  O  O177  1  0.16214508  0.50180987  0.49881607  1
  O  O178  1  0.33786104  0.49819512  0.99881302  1
  O  O179  1  0.83785983  0.00179336  0.00116435  1
  O  O180  1  0.49881607  0.33785492  0.00180987  1
  O  O181  1  0.50118824  0.83785822  0.49820280  1
  O  O182  1  0.00116435  0.66214017  0.50179336  1
  O  O183  1  0.99881302  0.16213896  0.99819512  1
  O  O184  1  0.00180488  0.49881302  0.33786104  1
  O  O185  1  0.49820664  0.50116435  0.83785983  1
  O  O186  1  0.50179720  0.00118824  0.66214178  1
  O  O187  1  0.99819013  0.99881607  0.16214508  1
  O  O188  1  0.33785822  0.00179720  0.49881176  1
  O  O189  1  0.83785492  0.49819013  0.50118393  1
  O  O190  1  0.66213896  0.50180488  0.00118698  1
  O  O191  1  0.16214017  0.99820664  0.99883565  1
