# generated using pymatgen
data_H7IN2
_symmetry_space_group_name_H-M   'P 1'
_cell_length_a   7.39093740
_cell_length_b   7.39842722
_cell_length_c   9.63677190
_cell_angle_alpha   90.00000000
_cell_angle_beta   90.00000000
_cell_angle_gamma   90.00000000
_symmetry_Int_Tables_number   1
_chemical_formula_structural   H7IN2
_chemical_formula_sum   'H28 I4 N8'
_cell_volume   526.95133519
_cell_formula_units_Z   4
loop_
 _symmetry_equiv_pos_site_id
 _symmetry_equiv_pos_as_xyz
  1  'x, y, z'
loop_
 _atom_site_type_symbol
 _atom_site_label
 _atom_site_symmetry_multiplicity
 _atom_site_fract_x
 _atom_site_fract_y
 _atom_site_fract_z
 _atom_site_occupancy
  H  H0  1  0.50000000  0.50000000  0.00000000  1
  H  H1  1  0.00000000  0.00000000  0.50000000  1
  H  H2  1  0.00000000  0.00000000  0.00000000  1
  H  H3  1  0.50000000  0.50000000  0.50000000  1
  H  H4  1  0.32838566  0.65550685  0.90948917  1
  H  H5  1  0.17161434  0.84449315  0.40948917  1
  H  H6  1  0.82838566  0.84449315  0.09051083  1
  H  H7  1  0.67161434  0.65550685  0.59051083  1
  H  H8  1  0.67161434  0.34449315  0.09051083  1
  H  H9  1  0.82838566  0.15550685  0.59051083  1
  H  H10  1  0.17161434  0.15550685  0.90948917  1
  H  H11  1  0.32838566  0.34449315  0.40948917  1
  H  H12  1  0.26836965  0.58274209  0.06477583  1
  H  H13  1  0.23163035  0.91725791  0.56477583  1
  H  H14  1  0.76836965  0.91725791  0.93522417  1
  H  H15  1  0.73163035  0.58274209  0.43522417  1
  H  H16  1  0.73163035  0.41725791  0.93522417  1
  H  H17  1  0.76836965  0.08274209  0.43522417  1
  H  H18  1  0.23163035  0.08274209  0.06477583  1
  H  H19  1  0.26836965  0.41725791  0.56477583  1
  H  H20  1  0.42498590  0.73971773  0.05038607  1
  H  H21  1  0.07501410  0.76028227  0.55038607  1
  H  H22  1  0.92498590  0.76028227  0.94961393  1
  H  H23  1  0.57501410  0.73971773  0.44961393  1
  H  H24  1  0.57501410  0.26028227  0.94961393  1
  H  H25  1  0.92498590  0.23971773  0.44961393  1
  H  H26  1  0.07501410  0.23971773  0.05038607  1
  H  H27  1  0.42498590  0.26028227  0.55038607  1
  I  I28  1  0.00000000  0.49996612  0.75000000  1
  I  I29  1  0.50000000  0.00003388  0.25000000  1
  I  I30  1  0.00000000  0.50003388  0.25000000  1
  I  I31  1  0.50000000  -0.00003388  0.75000000  1
  N  N32  1  0.37592805  0.62420923  0.00581333  1
  N  N33  1  0.12407195  0.87579077  0.50581333  1
  N  N34  1  0.87592805  0.87579077  0.99418667  1
  N  N35  1  0.62407195  0.62420923  0.49418667  1
  N  N36  1  0.62407195  0.37579077  0.99418667  1
  N  N37  1  0.87592805  0.12420923  0.49418667  1
  N  N38  1  0.12407195  0.12420923  0.00581333  1
  N  N39  1  0.37592805  0.37579077  0.50581333  1
