# generated using pymatgen
data_Nb9AsO25
_symmetry_space_group_name_H-M   'P 1'
_cell_length_a   15.86476124
_cell_length_b   15.86476124
_cell_length_c   3.86377179
_cell_angle_alpha   90.00000000
_cell_angle_beta   90.00000000
_cell_angle_gamma   90.00000000
_symmetry_Int_Tables_number   1
_chemical_formula_structural   Nb9AsO25
_chemical_formula_sum   'Nb18 As2 O50'
_cell_volume   972.47523019
_cell_formula_units_Z   2
loop_
 _symmetry_equiv_pos_site_id
 _symmetry_equiv_pos_as_xyz
  1  'x, y, z'
loop_
 _atom_site_type_symbol
 _atom_site_label
 _atom_site_symmetry_multiplicity
 _atom_site_fract_x
 _atom_site_fract_y
 _atom_site_fract_z
 _atom_site_occupancy
  Nb  Nb0  1  0.78155916  0.60714861  0.75162570  1
  Nb  Nb1  1  0.32710998  0.61519121  0.74217498  1
  Nb  Nb2  1  0.61519121  0.67289002  0.25782502  1
  Nb  Nb3  1  0.10714861  0.71844084  0.75162570  1
  Nb  Nb4  1  0.39285139  0.78155916  0.24837430  1
  Nb  Nb5  1  0.88480879  0.82710998  0.74217498  1
  Nb  Nb6  1  0.17289002  0.88480879  0.25782502  1
  Nb  Nb7  1  0.71844084  0.89285139  0.24837430  1
  Nb  Nb8  1  0.50000000  -0.00000000  0.28953787  1
  Nb  Nb9  1  0.28155916  0.10714861  0.24837430  1
  Nb  Nb10  1  0.82710998  0.11519121  0.25782502  1
  Nb  Nb11  1  0.11519121  0.17289002  0.74217498  1
  Nb  Nb12  1  0.60714861  0.21844084  0.24837430  1
  Nb  Nb13  1  0.89285139  0.28155916  0.75162570  1
  Nb  Nb14  1  0.38480879  0.32710998  0.25782502  1
  Nb  Nb15  1  0.67289002  0.38480879  0.74217498  1
  Nb  Nb16  1  0.21844084  0.39285139  0.75162570  1
  Nb  Nb17  1  -0.00000000  0.50000000  0.71046213  1
  As  As18  1  -0.00000000  -0.00000000  -0.00000000  1
  As  As19  1  0.50000000  0.50000000  -0.00000000  1
  O  O20  1  0.28142137  0.51086766  0.74843637  1
  O  O21  1  0.57427509  0.55046729  0.23679647  1
  O  O22  1  0.88347655  0.55063413  0.74736073  1
  O  O23  1  0.44953271  0.57427509  0.76320353  1
  O  O24  1  0.74847317  0.61240902  0.25101115  1
  O  O25  1  0.05063413  0.61652345  0.74736073  1
  O  O26  1  0.34283878  0.64671199  0.25171526  1
  O  O27  1  0.64671199  0.65716122  0.74828474  1
  O  O28  1  0.21817101  0.67539114  0.75666876  1
  O  O29  1  0.82460886  0.71817101  0.75666876  1
  O  O30  1  0.51086766  0.71857863  0.25156363  1
  O  O31  1  0.38759098  0.74847317  0.74898885  1
  O  O32  1  0.11240902  0.75152683  0.25101115  1
  O  O33  1  0.98913234  0.78142137  0.74843637  1
  O  O34  1  0.67539114  0.78182899  0.24333124  1
  O  O35  1  0.28182899  0.82460886  0.24333124  1
  O  O36  1  0.85328801  0.84283878  0.25171526  1
  O  O37  1  0.15716122  0.85328801  0.74828474  1
  O  O38  1  0.44936587  0.88347655  0.25263927  1
  O  O39  1  0.75152683  0.88759098  0.74898885  1
  O  O40  1  0.05046729  0.92572491  0.23679647  1
  O  O41  1  0.61652345  0.94936587  0.25263927  1
  O  O42  1  0.92572491  0.94953271  0.76320353  1
  O  O43  1  0.21857863  0.98913234  0.25156363  1
  O  O44  1  0.50000000  -0.00000000  0.76203138  1
  O  O45  1  0.78142137  0.01086766  0.25156363  1
  O  O46  1  0.07427509  0.05046729  0.76320353  1
  O  O47  1  0.38347655  0.05063413  0.25263927  1
  O  O48  1  0.94953271  0.07427509  0.23679647  1
  O  O49  1  0.24847317  0.11240902  0.74898885  1
  O  O50  1  0.55063413  0.11652345  0.25263927  1
  O  O51  1  0.84283878  0.14671199  0.74828474  1
  O  O52  1  0.14671199  0.15716122  0.25171526  1
  O  O53  1  0.71817101  0.17539114  0.24333124  1
  O  O54  1  0.32460886  0.21817101  0.24333124  1
  O  O55  1  0.01086766  0.21857863  0.74843637  1
  O  O56  1  0.88759098  0.24847317  0.25101115  1
  O  O57  1  0.61240902  0.25152683  0.74898885  1
  O  O58  1  0.48913234  0.28142137  0.25156363  1
  O  O59  1  0.17539114  0.28182899  0.75666876  1
  O  O60  1  0.78182899  0.32460886  0.75666876  1
  O  O61  1  0.35328801  0.34283878  0.74828474  1
  O  O62  1  0.65716122  0.35328801  0.25171526  1
  O  O63  1  0.94936587  0.38347655  0.74736073  1
  O  O64  1  0.25152683  0.38759098  0.25101115  1
  O  O65  1  0.55046729  0.42572491  0.76320353  1
  O  O66  1  0.11652345  0.44936587  0.74736073  1
  O  O67  1  0.42572491  0.44953271  0.23679647  1
  O  O68  1  0.71857863  0.48913234  0.74843637  1
  O  O69  1  -0.00000000  0.50000000  0.23796862  1
