# generated using pymatgen
data_CaNiO3
_symmetry_space_group_name_H-M   'P 1'
_cell_length_a   4.78897200
_cell_length_b   5.19501615
_cell_length_c   5.19501600
_cell_angle_alpha   60.00000094
_cell_angle_beta   90.00000000
_cell_angle_gamma   90.00000000
_symmetry_Int_Tables_number   1
_chemical_formula_structural   CaNiO3
_chemical_formula_sum   'Ca2 Ni2 O6'
_cell_volume   111.93005701
_cell_formula_units_Z   2
loop_
 _symmetry_equiv_pos_site_id
 _symmetry_equiv_pos_as_xyz
  1  'x, y, z'
loop_
 _atom_site_type_symbol
 _atom_site_label
 _atom_site_symmetry_multiplicity
 _atom_site_fract_x
 _atom_site_fract_y
 _atom_site_fract_z
 _atom_site_occupancy
  Ca  Ca0  1  0.73447500  0.66666600  0.66666700  1
  Ca  Ca1  1  0.23447500  0.33333400  0.33333300  1
  Ni  Ni2  1  0.01452300  0.00000000  0.00000000  1
  Ni  Ni3  1  0.51452300  0.00000000  0.00000000  1
  O  O4  1  0.26615600  0.31843400  0.84078300  1
  O  O5  1  0.26615600  0.84078200  0.84078300  1
  O  O6  1  0.76615600  0.15921800  0.68156500  1
  O  O7  1  0.26615600  0.84078200  0.31843500  1
  O  O8  1  0.76615600  0.15921800  0.15921700  1
  O  O9  1  0.76615600  0.68156600  0.15921700  1
