# generated using pymatgen
data_HfPbO3
_symmetry_space_group_name_H-M   'P 1'
_cell_length_a   5.79707532
_cell_length_b   5.79311185
_cell_length_c   8.19633351
_cell_angle_alpha   90.00000000
_cell_angle_beta   90.00000000
_cell_angle_gamma   90.00000000
_symmetry_Int_Tables_number   1
_chemical_formula_structural   HfPbO3
_chemical_formula_sum   'Hf4 Pb4 O12'
_cell_volume   275.25833488
_cell_formula_units_Z   4
loop_
 _symmetry_equiv_pos_site_id
 _symmetry_equiv_pos_as_xyz
  1  'x, y, z'
loop_
 _atom_site_type_symbol
 _atom_site_label
 _atom_site_symmetry_multiplicity
 _atom_site_fract_x
 _atom_site_fract_y
 _atom_site_fract_z
 _atom_site_occupancy
  Hf  Hf0  1  -0.00000000  0.00000000  0.50000000  1
  Hf  Hf1  1  -0.00000000  0.00000000  -0.00000000  1
  Hf  Hf2  1  0.50000000  0.50000000  0.50000000  1
  Hf  Hf3  1  0.50000000  0.50000000  -0.00000000  1
  Pb  Pb4  1  0.49530682  0.01059484  0.75000000  1
  Pb  Pb5  1  0.99530682  0.48940516  0.25000000  1
  Pb  Pb6  1  0.00469318  0.51059484  0.75000000  1
  Pb  Pb7  1  0.50469318  0.98940516  0.25000000  1
  O  O8  1  0.05979230  0.00589206  0.25000000  1
  O  O9  1  0.71967826  0.21966799  0.03146874  1
  O  O10  1  0.71967826  0.21966799  0.46853126  1
  O  O11  1  0.21967826  0.28033201  0.96853126  1
  O  O12  1  0.21967826  0.28033201  0.53146874  1
  O  O13  1  0.55979230  0.49410794  0.75000000  1
  O  O14  1  0.44020770  0.50589206  0.25000000  1
  O  O15  1  0.78032174  0.71966799  0.03146874  1
  O  O16  1  0.78032174  0.71966799  0.46853126  1
  O  O17  1  0.28032174  0.78033201  0.53146874  1
  O  O18  1  0.28032174  0.78033201  0.96853126  1
  O  O19  1  0.94020770  0.99410794  0.75000000  1
