# generated using pymatgen
data_Gd3NbO7
_symmetry_space_group_name_H-M   'P 1'
_cell_length_a   6.54220071
_cell_length_b   6.54220071
_cell_length_c   7.55339771
_cell_angle_alpha   90.00000000
_cell_angle_beta   90.00000000
_cell_angle_gamma   108.92009552
_symmetry_Int_Tables_number   1
_chemical_formula_structural   Gd3NbO7
_chemical_formula_sum   'Gd6 Nb2 O14'
_cell_volume   305.82164532
_cell_formula_units_Z   2
loop_
 _symmetry_equiv_pos_site_id
 _symmetry_equiv_pos_as_xyz
  1  'x, y, z'
loop_
 _atom_site_type_symbol
 _atom_site_label
 _atom_site_symmetry_multiplicity
 _atom_site_fract_x
 _atom_site_fract_y
 _atom_site_fract_z
 _atom_site_occupancy
  Gd  Gd0  1  0.46434150  0.00095935  0.25933212  1
  Gd  Gd1  1  0.99904065  0.53565850  0.24066788  1
  Gd  Gd2  1  0.46748212  0.46748212  0.00000000  1
  Gd  Gd3  1  0.53251788  0.53251788  0.50000000  1
  Gd  Gd4  1  0.53565850  0.99904065  0.75933212  1
  Gd  Gd5  1  0.00095935  0.46434150  0.74066788  1
  Nb  Nb6  1  0.00196196  0.00196196  0.50000000  1
  Nb  Nb7  1  0.99803804  0.99803804  0.00000000  1
  O  O8  1  0.93223030  0.06776970  0.75000000  1
  O  O9  1  0.63854968  0.36145032  0.75000000  1
  O  O10  1  0.30636513  0.05163799  0.54452943  1
  O  O11  1  0.94836201  0.69363487  0.95547057  1
  O  O12  1  0.62879872  0.37120128  0.25000000  1
  O  O13  1  0.91702756  0.67151154  0.52275939  1
  O  O14  1  0.32848846  0.08297244  0.97724061  1
  O  O15  1  0.08297244  0.32848846  0.02275939  1
  O  O16  1  0.67151154  0.91702756  0.47724061  1
  O  O17  1  0.37120128  0.62879872  0.75000000  1
  O  O18  1  0.69363487  0.94836201  0.04452943  1
  O  O19  1  0.05163799  0.30636513  0.45547057  1
  O  O20  1  0.36145032  0.63854968  0.25000000  1
  O  O21  1  0.06776970  0.93223030  0.25000000  1
