# generated using pymatgen
data_Hf2N2O
_symmetry_space_group_name_H-M   'P 1'
_cell_length_a   8.66262361
_cell_length_b   8.66670620
_cell_length_c   8.66867640
_cell_angle_alpha   109.37293589
_cell_angle_beta   109.34319026
_cell_angle_gamma   109.49032333
_symmetry_Int_Tables_number   1
_chemical_formula_structural   Hf2N2O
_chemical_formula_sum   'Hf16 N16 O8'
_cell_volume   502.27259262
_cell_formula_units_Z   8
loop_
 _symmetry_equiv_pos_site_id
 _symmetry_equiv_pos_as_xyz
  1  'x, y, z'
loop_
 _atom_site_type_symbol
 _atom_site_label
 _atom_site_symmetry_multiplicity
 _atom_site_fract_x
 _atom_site_fract_y
 _atom_site_fract_z
 _atom_site_occupancy
  Hf  Hf0  1  0.99630030  0.48927773  0.99112427  1
  Hf  Hf1  1  0.21930531  0.25782931  0.97015245  1
  Hf  Hf2  1  0.75372837  0.97423667  0.72349833  1
  Hf  Hf3  1  0.24381234  0.53152000  0.78190626  1
  Hf  Hf4  1  0.03244857  0.28183356  0.25343061  1
  Hf  Hf5  1  0.53414895  0.78679228  0.25051516  1
  Hf  Hf6  1  0.29030824  0.75474521  0.54133486  1
  Hf  Hf7  1  0.71410619  0.24841272  0.46480245  1
  Hf  Hf8  1  0.98650870  0.98940554  0.48114786  1
  Hf  Hf9  1  0.51013464  0.01729307  0.01295959  1
  Hf  Hf10  1  0.50697861  0.49999757  0.51041710  1
  Hf  Hf11  1  0.46803116  0.21036486  0.75072637  1
  Hf  Hf12  1  0.95388885  0.70725900  0.73993964  1
  Hf  Hf13  1  0.25685592  0.03650392  0.29673292  1
  Hf  Hf14  1  0.74387604  0.46400479  0.20952414  1
  Hf  Hf15  1  0.78604124  0.74711928  0.03242492  1
  N  N16  1  0.27681325  0.53306258  0.04665438  1
  N  N17  1  0.26003648  0.48952746  0.53474131  1
  N  N18  1  0.44884189  0.98315691  0.22097558  1
  N  N19  1  0.77422716  0.04582050  0.51771495  1
  N  N20  1  0.46288460  0.23766903  0.01079585  1
  N  N21  1  0.22272491  0.94911314  0.48826313  1
  N  N22  1  0.72873385  0.74043292  0.77237256  1
  N  N23  1  0.97039830  0.46056505  0.73002221  1
  N  N24  1  0.77391046  0.22956664  0.23743929  1
  N  N25  1  0.99215519  0.03362036  0.25905085  1
  N  N26  1  0.54246839  0.00536068  0.77037613  1
  N  N27  1  0.73958004  0.51744176  0.46650336  1
  N  N28  1  0.75750195  0.72849106  0.26836818  1
  N  N29  1  0.95872276  0.22705782  0.96946882  1
  N  N30  1  0.73094851  0.46544633  0.95287022  1
  N  N31  1  0.50658956  0.27318086  0.54329519  1
  O  O32  1  0.48156550  0.72476695  0.44934421  1
  O  O33  1  0.04479221  0.77183157  0.03435240  1
  O  O34  1  0.23393407  0.27134111  0.72770371  1
  O  O35  1  0.22759899  0.77378363  0.76336722  1
  O  O36  1  0.02156823  0.96655634  0.74105166  1
  O  O37  1  0.53203515  0.76043247  0.98428653  1
  O  O38  1  0.27740738  0.26550729  0.22801184  1
  O  O39  1  0.03808675  0.54967402  0.27233548  1
