# generated using pymatgen
data_K2RuN3Cl3O5
_symmetry_space_group_name_H-M   'P 1'
_cell_length_a   7.19459800
_cell_length_b   7.68874830
_cell_length_c   10.46708354
_cell_angle_alpha   90.40703383
_cell_angle_beta   102.11787025
_cell_angle_gamma   90.53827352
_symmetry_Int_Tables_number   1
_chemical_formula_structural   K2RuN3Cl3O5
_chemical_formula_sum   'K4 Ru2 N6 Cl6 O10'
_cell_volume   566.06136305
_cell_formula_units_Z   2
loop_
 _symmetry_equiv_pos_site_id
 _symmetry_equiv_pos_as_xyz
  1  'x, y, z'
loop_
 _atom_site_type_symbol
 _atom_site_label
 _atom_site_symmetry_multiplicity
 _atom_site_fract_x
 _atom_site_fract_y
 _atom_site_fract_z
 _atom_site_occupancy
  K  K0  1  0.76730000  0.74508000  0.01782300  1
  K  K1  1  0.62154400  0.24854100  0.63664100  1
  K  K2  1  0.37497900  0.74822600  0.36279800  1
  K  K3  1  0.22735500  0.25229400  0.98181100  1
  Ru  Ru4  1  0.13256400  0.75707900  0.74299300  1
  Ru  Ru5  1  0.86586800  0.24923800  0.26252300  1
  N  N6  1  0.31004400  0.94635200  0.69664700  1
  N  N7  1  0.67736700  0.42890300  0.29804500  1
  N  N8  1  0.99043900  0.25657200  0.43045800  1
  N  N9  1  0.32679700  0.57226800  0.70664900  1
  N  N10  1  0.69114800  0.04984300  0.30705300  1
  N  N11  1  0.01502500  0.73909200  0.57566800  1
  Cl  Cl12  1  0.09478200  0.02981500  0.20761700  1
  Cl  Cl13  1  0.28831100  0.77295100  0.95967900  1
  Cl  Cl14  1  0.91794600  0.97547000  0.79452300  1
  Cl  Cl15  1  0.07701000  0.47994500  0.20053600  1
  Cl  Cl16  1  0.70489800  0.23623300  0.04023200  1
  Cl  Cl17  1  0.93466200  0.52148700  0.79817800  1
  O  O18  1  0.60009400  0.53117900  0.20243700  1
  O  O19  1  0.64270000  0.44279100  0.41113000  1
  O  O20  1  0.35083900  0.96141100  0.58633200  1
  O  O21  1  0.36246500  0.55123400  0.59632300  1
  O  O22  1  0.64875700  0.03881000  0.41316700  1
  O  O23  1  0.04848900  0.25772800  0.53824400  1
  O  O24  1  0.37467800  0.07332800  0.77835700  1
  O  O25  1  0.40240400  0.46212300  0.79627600  1
  O  O26  1  0.94959600  0.73862300  0.45958500  1
  O  O27  1  0.62934500  0.93665400  0.21732400  1
