# generated using pymatgen
data_HoGaO3
_symmetry_space_group_name_H-M   'P 1'
_cell_length_a   6.01336441
_cell_length_b   6.01336468
_cell_length_c   11.63625179
_cell_angle_alpha   89.99998584
_cell_angle_beta   89.99998602
_cell_angle_gamma   119.99962403
_symmetry_Int_Tables_number   1
_chemical_formula_structural   HoGaO3
_chemical_formula_sum   'Ho6 Ga6 O18'
_cell_volume   364.40174898
_cell_formula_units_Z   6
loop_
 _symmetry_equiv_pos_site_id
 _symmetry_equiv_pos_as_xyz
  1  'x, y, z'
loop_
 _atom_site_type_symbol
 _atom_site_label
 _atom_site_symmetry_multiplicity
 _atom_site_fract_x
 _atom_site_fract_y
 _atom_site_fract_z
 _atom_site_occupancy
  Ho  Ho0  1  0.33333297  0.66666636  0.22975546  1
  Ho  Ho1  1  0.00000032  0.00000033  0.27155761  1
  Ho  Ho2  1  0.99999962  0.99999947  0.77155806  1
  Ho  Ho3  1  0.33333299  0.66666708  0.72975529  1
  Ho  Ho4  1  0.66666734  0.33333292  0.72975574  1
  Ho  Ho5  1  0.66666622  0.33333298  0.22975580  1
  Ga  Ga6  1  -0.00000517  0.66585026  0.49676376  1
  Ga  Ga7  1  0.00000516  0.33415059  0.99676410  1
  Ga  Ga8  1  0.33414875  0.33414877  0.49676394  1
  Ga  Ga9  1  0.66585235  0.66585234  0.99676536  1
  Ga  Ga10  1  0.33415049  0.00000517  0.99676413  1
  Ga  Ga11  1  0.66585019  -0.00000505  0.49676384  1
  O  O12  1  -0.00000151  0.69407522  0.65945699  1
  O  O13  1  -0.00000098  0.63963835  0.33526158  1
  O  O14  1  0.00000093  0.36036152  0.83526123  1
  O  O15  1  0.00000115  0.30592357  0.15945683  1
  O  O16  1  0.33333358  0.66666733  0.01563403  1
  O  O17  1  0.33333298  0.66666652  0.51563445  1
  O  O18  1  -0.00000100  -0.00000098  0.47449873  1
  O  O19  1  0.00000116  0.00000104  0.97449811  1
  O  O20  1  0.30592258  0.30592224  0.65945777  1
  O  O21  1  0.36035949  0.36035981  0.33526260  1
  O  O22  1  0.30592360  0.00000159  0.15945683  1
  O  O23  1  0.63963990  0.63963987  0.83526119  1
  O  O24  1  0.69407787  0.69407785  0.15945674  1
  O  O25  1  0.36036136  0.00000054  0.83526120  1
  O  O26  1  0.66666648  0.33333279  0.51563417  1
  O  O27  1  0.66666749  0.33333390  0.01563385  1
  O  O28  1  0.63963806  -0.00000102  0.33526158  1
  O  O29  1  0.69407562  -0.00000134  0.65945703  1
