# generated using pymatgen
data_BiOF
_symmetry_space_group_name_H-M   'P 1'
_cell_length_a   3.96592876
_cell_length_b   7.10229016
_cell_length_c   3.96592891
_cell_angle_alpha   106.21251097
_cell_angle_beta   120.00000710
_cell_angle_gamma   90.00001111
_symmetry_Int_Tables_number   1
_chemical_formula_structural   BiOF
_chemical_formula_sum   'Bi2 O2 F2'
_cell_volume   91.57733284
_cell_formula_units_Z   2
loop_
 _symmetry_equiv_pos_site_id
 _symmetry_equiv_pos_as_xyz
  1  'x, y, z'
loop_
 _atom_site_type_symbol
 _atom_site_label
 _atom_site_symmetry_multiplicity
 _atom_site_fract_x
 _atom_site_fract_y
 _atom_site_fract_z
 _atom_site_occupancy
  Bi  Bi0  1  0.76062448  0.28187343  0.52124895  1
  Bi  Bi1  1  0.23937552  0.71812657  0.47875105  1
  O  O2  1  0.12807547  0.38422842  0.25615195  1
  O  O3  1  0.87192453  0.61577158  0.74384805  1
  F  F4  1  0.37795141  0.13385422  0.75590281  1
  F  F5  1  0.62204859  0.86614578  0.24409719  1
