# generated using pymatgen
data_Er2Si2O7
_symmetry_space_group_name_H-M   'P 1'
_cell_length_a   10.71354026
_cell_length_b   4.69762141
_cell_length_c   5.52493804
_cell_angle_alpha   83.86655974
_cell_angle_beta   90.00000000
_cell_angle_gamma   90.00000000
_symmetry_Int_Tables_number   1
_chemical_formula_structural   Er2Si2O7
_chemical_formula_sum   'Er4 Si4 O14'
_cell_volume   276.46826077
_cell_formula_units_Z   2
loop_
 _symmetry_equiv_pos_site_id
 _symmetry_equiv_pos_as_xyz
  1  'x, y, z'
loop_
 _atom_site_type_symbol
 _atom_site_label
 _atom_site_symmetry_multiplicity
 _atom_site_fract_x
 _atom_site_fract_y
 _atom_site_fract_z
 _atom_site_occupancy
  Er  Er0  1  0.15077275  0.11026040  0.59311117  1
  Er  Er1  1  0.65077275  0.88973960  0.90688883  1
  Er  Er2  1  0.84922725  0.88973960  0.40688883  1
  Er  Er3  1  0.34922725  0.11026040  0.09311117  1
  Si  Si4  1  0.11285010  0.63980468  0.14542878  1
  Si  Si5  1  0.61285010  0.36019532  0.35457122  1
  Si  Si6  1  0.88714990  0.36019532  0.85457122  1
  Si  Si7  1  0.38714990  0.63980468  0.64542878  1
  O  O8  1  0.20353948  0.38007282  0.25480421  1
  O  O9  1  0.70353948  0.61992718  0.24519579  1
  O  O10  1  0.79646052  0.61992718  0.74519579  1
  O  O11  1  0.29646052  0.38007282  0.75480421  1
  O  O12  1  0.18378371  0.87720439  0.95915349  1
  O  O13  1  0.68378371  0.12279561  0.54084651  1
  O  O14  1  0.81621629  0.12279561  0.04084651  1
  O  O15  1  0.31621629  0.87720439  0.45915349  1
  O  O16  1  0.50000000  0.50000000  0.50000000  1
  O  O17  1  -0.00000000  0.50000000  0.00000000  1
  O  O18  1  0.44904527  0.79570854  0.86841712  1
  O  O19  1  0.94904527  0.20429146  0.63158288  1
  O  O20  1  0.55095473  0.20429146  0.13158288  1
  O  O21  1  0.05095473  0.79570854  0.36841712  1
