# generated using pymatgen
data_Na6Co2C4SO16
_symmetry_space_group_name_H-M   'P 1'
_cell_length_a   9.74452847
_cell_length_b   9.74552969
_cell_length_c   9.73397859
_cell_angle_alpha   60.06942537
_cell_angle_beta   60.06845195
_cell_angle_gamma   60.13728880
_symmetry_Int_Tables_number   1
_chemical_formula_structural   Na6Co2C4SO16
_chemical_formula_sum   'Na12 Co4 C8 S2 O32'
_cell_volume   655.00247361
_cell_formula_units_Z   2
loop_
 _symmetry_equiv_pos_site_id
 _symmetry_equiv_pos_as_xyz
  1  'x, y, z'
loop_
 _atom_site_type_symbol
 _atom_site_label
 _atom_site_symmetry_multiplicity
 _atom_site_fract_x
 _atom_site_fract_y
 _atom_site_fract_z
 _atom_site_occupancy
  Na  Na0  1  0.28351817  0.71656563  0.28370270  1
  Na  Na1  1  0.71600241  0.28332811  0.28425404  1
  Na  Na2  1  0.71614475  0.71666579  0.28432192  1
  Na  Na3  1  0.53399761  0.96573765  0.53370396  1
  Na  Na4  1  0.28434745  0.28322067  0.71599681  1
  Na  Na5  1  0.28430842  0.71621992  0.71582069  1
  Na  Na6  1  0.96565255  0.96677933  0.53400319  1
  Na  Na7  1  0.96569158  0.53378008  0.53417931  1
  Na  Na8  1  0.71600239  0.28426235  0.71629604  1
  Na  Na9  1  0.53399759  0.96667189  0.96574596  1
  Na  Na10  1  0.53385525  0.53333421  0.96567808  1
  Na  Na11  1  0.96648183  0.53343437  0.96629730  1
  Co  Co12  1  0.12500000  0.62500000  0.12500000  1
  Co  Co13  1  0.12500000  0.12500000  0.12500000  1
  Co  Co14  1  0.62500000  0.12500000  0.12500000  1
  Co  Co15  1  0.12500000  0.12500000  0.62500000  1
  C  C16  1  0.90627516  0.90630774  0.28064059  1
  C  C17  1  0.34322781  0.96874865  0.34389842  1
  C  C18  1  0.34344786  0.34331646  0.34416170  1
  C  C19  1  0.96849215  0.34401977  0.34430824  1
  C  C20  1  0.28150785  0.90598023  0.90569176  1
  C  C21  1  0.90677219  0.28125135  0.90610158  1
  C  C22  1  0.90655214  0.90668354  0.90583830  1
  C  C23  1  0.34372484  0.34369226  0.96935941  1
  S  S24  1  0.74991643  0.75003051  0.74999092  1
  S  S25  1  0.50008357  0.49996949  0.50000908  1
  O  O26  1  0.02435312  0.92947131  0.28321645  1
  O  O27  1  0.92960863  0.76264363  0.28330729  1
  O  O28  1  0.76265250  0.02383480  0.28280527  1
  O  O29  1  0.48589420  0.32250640  0.22431561  1
  O  O30  1  0.93589482  0.68822583  0.68789665  1
  O  O31  1  0.48620043  0.96654359  0.32204716  1
  O  O32  1  0.32185274  0.96665066  0.22419739  1
  O  O33  1  0.68807177  0.93604585  0.68792764  1
  O  O34  1  0.68778618  0.68800003  0.68768793  1
  O  O35  1  0.22389857  0.48552871  0.32328900  1
  O  O36  1  0.32263389  0.22353343  0.48691112  1
  O  O37  1  0.68787229  0.68797245  0.93628438  1
  O  O38  1  0.96669216  0.48746045  0.22591384  1
  O  O39  1  0.22390614  0.96652356  0.48678672  1
  O  O40  1  0.96633977  0.22546309  0.32161530  1
  O  O41  1  0.28413470  0.92815480  0.76216203  1
  O  O42  1  0.96586530  0.32184520  0.48783797  1
  O  O43  1  0.28366023  0.02453691  0.92838470  1
  O  O44  1  0.02609386  0.28347644  0.76321328  1
  O  O45  1  0.28330784  0.76253955  0.02408616  1
  O  O46  1  0.56212771  0.56202755  0.31371562  1
  O  O47  1  0.92736611  0.02646657  0.76308888  1
  O  O48  1  0.02610143  0.76447129  0.92671100  1
  O  O49  1  0.56221382  0.56199997  0.56231207  1
  O  O50  1  0.56192823  0.31395415  0.56207236  1
  O  O51  1  0.92814726  0.28334934  0.02580261  1
  O  O52  1  0.76379957  0.28345641  0.92795284  1
  O  O53  1  0.31410518  0.56177417  0.56210335  1
  O  O54  1  0.76410580  0.92749360  0.02568439  1
  O  O55  1  0.48734750  0.22616520  0.96719473  1
  O  O56  1  0.32039137  0.48735637  0.96669271  1
  O  O57  1  0.22564688  0.32052869  0.96678355  1
