# generated using pymatgen
data_Li2VGaO4
_symmetry_space_group_name_H-M   'P 1'
_cell_length_a   5.06343229
_cell_length_b   10.53135583
_cell_length_c   8.77174141
_cell_angle_alpha   74.75822169
_cell_angle_beta   73.85314387
_cell_angle_gamma   76.54726796
_symmetry_Int_Tables_number   1
_chemical_formula_structural   Li2VGaO4
_chemical_formula_sum   'Li12 V6 Ga6 O24'
_cell_volume   427.02454984
_cell_formula_units_Z   6
loop_
 _symmetry_equiv_pos_site_id
 _symmetry_equiv_pos_as_xyz
  1  'x, y, z'
loop_
 _atom_site_type_symbol
 _atom_site_label
 _atom_site_symmetry_multiplicity
 _atom_site_fract_x
 _atom_site_fract_y
 _atom_site_fract_z
 _atom_site_occupancy
  Li  Li0  1  0.00319158  0.75047127  0.24912212  1
  Li  Li1  1  0.00313909  0.25050445  0.74910274  1
  Li  Li2  1  -0.00193876  0.49904053  0.83349544  1
  Li  Li3  1  -0.00189904  -0.00097059  0.33349462  1
  Li  Li4  1  0.00170648  0.50038603  0.16291171  1
  Li  Li5  1  0.00171070  0.00034189  0.66294664  1
  Li  Li6  1  0.99801763  0.74928035  0.92075499  1
  Li  Li7  1  0.99799388  0.24927974  0.42077935  1
  Li  Li8  1  0.00061302  0.99423803  0.00411847  1
  Li  Li9  1  0.00049028  0.49429245  0.50420687  1
  Li  Li10  1  0.99927446  0.25643593  0.08019203  1
  Li  Li11  1  0.99928042  0.75640168  0.58023238  1
  V  V12  1  0.49975726  0.37505611  0.29168520  1
  V  V13  1  0.50039513  0.62176078  0.37921606  1
  V  V14  1  0.49962665  0.12826212  0.20399997  1
  V  V15  1  0.49978345  0.87509055  0.79168695  1
  V  V16  1  0.50038752  0.12179294  0.87923626  1
  V  V17  1  0.49959989  0.62822817  0.70403436  1
  Ga  Ga18  1  0.49994743  0.62496286  0.04151219  1
  Ga  Ga19  1  0.49991689  0.12500344  0.54151315  1
  Ga  Ga20  1  0.50029747  0.87156492  0.12794288  1
  Ga  Ga21  1  0.50024055  0.37151990  0.62797554  1
  Ga  Ga22  1  0.49993768  0.37836172  0.95523125  1
  Ga  Ga23  1  0.49995548  0.87841268  0.45520635  1
  O  O24  1  0.26978780  0.55866914  0.60177386  1
  O  O25  1  0.26982752  0.05867915  0.10171880  1
  O  O26  1  0.73001351  0.19134810  0.98156648  1
  O  O27  1  0.73003527  0.69131674  0.48163168  1
  O  O28  1  0.27350057  0.31208645  0.85131663  1
  O  O29  1  0.27355918  0.81206481  0.35130680  1
  O  O30  1  0.72644418  0.43796123  0.73190411  1
  O  O31  1  0.72645730  0.93796374  0.23191160  1
  O  O32  1  0.26947048  0.31540811  0.17874453  1
  O  O33  1  0.26942005  0.81540315  0.67872996  1
  O  O34  1  0.73039148  0.43461910  0.40456725  1
  O  O35  1  0.73041769  0.93461404  0.90457007  1
  O  O36  1  0.27354865  0.56271544  0.93230315  1
  O  O37  1  0.27351958  0.06272379  0.43232391  1
  O  O38  1  0.72643693  0.68722858  0.15088613  1
  O  O39  1  0.72640759  0.18725878  0.65090889  1
  O  O40  1  0.27240532  0.55948160  0.26743560  1
  O  O41  1  0.27242413  0.05951291  0.76744398  1
  O  O42  1  0.72740984  0.69058088  0.81582140  1
  O  O43  1  0.72736883  0.19064670  0.31582538  1
  O  O44  1  0.27192950  0.80688473  0.02382413  1
  O  O45  1  0.27192950  0.30692775  0.52380344  1
  O  O46  1  0.72792987  0.44307815  0.05955301  1
  O  O47  1  0.72793608  0.94310395  0.55952770  1
