# generated using pymatgen
data_CeTh2O6
_symmetry_space_group_name_H-M   'P 1'
_cell_length_a   3.92794669
_cell_length_b   6.79434554
_cell_length_c   5.54864524
_cell_angle_alpha   65.88007615
_cell_angle_beta   89.99078314
_cell_angle_gamma   73.19435705
_symmetry_Int_Tables_number   1
_chemical_formula_structural   CeTh2O6
_chemical_formula_sum   'Ce1 Th2 O6'
_cell_volume   128.19521106
_cell_formula_units_Z   1
loop_
 _symmetry_equiv_pos_site_id
 _symmetry_equiv_pos_as_xyz
  1  'x, y, z'
loop_
 _atom_site_type_symbol
 _atom_site_label
 _atom_site_symmetry_multiplicity
 _atom_site_fract_x
 _atom_site_fract_y
 _atom_site_fract_z
 _atom_site_occupancy
  Ce  Ce0  1  0.32940867  0.33353051  0.33365081  1
  Th  Th1  1  0.66370525  0.66472662  0.66805866  1
  Th  Th2  1  0.99494979  0.00231937  0.99911609  1
  O  O3  1  0.16454727  0.66296155  0.92187569  1
  O  O4  1  0.82959047  0.33339078  0.57901951  1
  O  O5  1  0.16489052  0.66252194  0.41748088  1
  O  O6  1  0.49406219  0.00437858  0.74506180  1
  O  O7  1  0.82904157  0.33365780  0.08824216  1
  O  O8  1  0.49386428  0.00421487  0.24975639  1
