# generated using pymatgen
data_K14W6N17
_symmetry_space_group_name_H-M   'P 1'
_cell_length_a   9.82683800
_cell_length_b   12.62592000
_cell_length_c   24.28394900
_cell_angle_alpha   90.00000000
_cell_angle_beta   90.00000000
_cell_angle_gamma   90.00000000
_symmetry_Int_Tables_number   1
_chemical_formula_structural   K14W6N17
_chemical_formula_sum   'K56 W24 N68'
_cell_volume   3012.97925807
_cell_formula_units_Z   4
loop_
 _symmetry_equiv_pos_site_id
 _symmetry_equiv_pos_as_xyz
  1  'x, y, z'
loop_
 _atom_site_type_symbol
 _atom_site_label
 _atom_site_symmetry_multiplicity
 _atom_site_fract_x
 _atom_site_fract_y
 _atom_site_fract_z
 _atom_site_occupancy
  K  K0  1  0.26037400  0.27950800  0.75000000  1
  K  K1  1  0.73962600  0.72049200  0.25000000  1
  K  K2  1  0.26037400  0.22049200  0.25000000  1
  K  K3  1  0.73962600  0.77950800  0.75000000  1
  K  K4  1  0.57591800  0.23748900  0.75000000  1
  K  K5  1  0.42408200  0.76251100  0.25000000  1
  K  K6  1  0.57591800  0.26251100  0.25000000  1
  K  K7  1  0.42408200  0.73748900  0.75000000  1
  K  K8  1  0.72010000  0.35973500  0.87202500  1
  K  K9  1  0.27990000  0.64026500  0.37202500  1
  K  K10  1  0.72010000  0.14026500  0.12797500  1
  K  K11  1  0.27990000  0.85973500  0.62797500  1
  K  K12  1  0.27990000  0.64026500  0.12797500  1
  K  K13  1  0.72010000  0.35973500  0.62797500  1
  K  K14  1  0.27990000  0.85973500  0.87202500  1
  K  K15  1  0.72010000  0.14026500  0.37202500  1
  K  K16  1  0.08165200  0.39495100  0.03017300  1
  K  K17  1  0.91834800  0.60504900  0.53017300  1
  K  K18  1  0.08165200  0.10504900  0.96982700  1
  K  K19  1  0.91834800  0.89495100  0.46982700  1
  K  K20  1  0.91834800  0.60504900  0.96982700  1
  K  K21  1  0.08165200  0.39495100  0.46982700  1
  K  K22  1  0.91834800  0.89495100  0.03017300  1
  K  K23  1  0.08165200  0.10504900  0.53017300  1
  K  K24  1  0.24745200  0.86837900  0.02193400  1
  K  K25  1  0.75254800  0.13162100  0.52193400  1
  K  K26  1  0.24745200  0.63162100  0.97806600  1
  K  K27  1  0.75254800  0.36837900  0.47806600  1
  K  K28  1  0.75254800  0.13162100  0.97806600  1
  K  K29  1  0.24745200  0.86837900  0.47806600  1
  K  K30  1  0.75254800  0.36837900  0.02193400  1
  K  K31  1  0.24745200  0.63162100  0.52193400  1
  K  K32  1  0.41766300  0.39056600  0.95626600  1
  K  K33  1  0.58233700  0.60943400  0.45626600  1
  K  K34  1  0.41766300  0.10943400  0.04373400  1
  K  K35  1  0.58233700  0.89056600  0.54373400  1
  K  K36  1  0.58233700  0.60943400  0.04373400  1
  K  K37  1  0.41766300  0.39056600  0.54373400  1
  K  K38  1  0.58233700  0.89056600  0.95626600  1
  K  K39  1  0.41766300  0.10943400  0.45626600  1
  K  K40  1  0.04415300  0.41848900  0.17163500  1
  K  K41  1  0.95584700  0.58151100  0.67163500  1
  K  K42  1  0.04415300  0.08151100  0.82836500  1
  K  K43  1  0.95584700  0.91848900  0.32836500  1
  K  K44  1  0.95584700  0.58151100  0.82836500  1
  K  K45  1  0.04415300  0.41848900  0.32836500  1
  K  K46  1  0.95584700  0.91848900  0.17163500  1
  K  K47  1  0.04415300  0.08151100  0.67163500  1
  K  K48  1  0.69443800  0.45753600  0.16838700  1
  K  K49  1  0.30556200  0.54246400  0.66838700  1
  K  K50  1  0.69443800  0.04246400  0.83161300  1
  K  K51  1  0.30556200  0.95753600  0.33161300  1
  K  K52  1  0.30556200  0.54246400  0.83161300  1
  K  K53  1  0.69443800  0.45753600  0.33161300  1
  K  K54  1  0.30556200  0.95753600  0.16838700  1
  K  K55  1  0.69443800  0.04246400  0.66838700  1
  W  W56  1  0.38848100  0.00739700  0.75000000  1
  W  W57  1  0.61151900  0.99260300  0.25000000  1
  W  W58  1  0.38848100  0.49260300  0.25000000  1
  W  W59  1  0.61151900  0.50739700  0.75000000  1
  W  W60  1  0.08356600  0.81785400  0.75000000  1
  W  W61  1  0.91643400  0.18214600  0.25000000  1
  W  W62  1  0.08356600  0.68214600  0.25000000  1
  W  W63  1  0.91643400  0.31785400  0.75000000  1
  W  W64  1  0.08360200  0.33991600  0.60870500  1
  W  W65  1  0.91639800  0.66008400  0.10870500  1
  W  W66  1  0.08360200  0.16008400  0.39129500  1
  W  W67  1  0.91639800  0.83991600  0.89129500  1
  W  W68  1  0.91639800  0.66008400  0.39129500  1
  W  W69  1  0.08360200  0.33991600  0.89129500  1
  W  W70  1  0.91639800  0.83991600  0.60870500  1
  W  W71  1  0.08360200  0.16008400  0.10870500  1
  W  W72  1  0.38091300  0.14225100  0.60949700  1
  W  W73  1  0.61908700  0.85774900  0.10949700  1
  W  W74  1  0.38091300  0.35774900  0.39050300  1
  W  W75  1  0.61908700  0.64225100  0.89050300  1
  W  W76  1  0.61908700  0.85774900  0.39050300  1
  W  W77  1  0.38091300  0.14225100  0.89050300  1
  W  W78  1  0.61908700  0.64225100  0.60949700  1
  W  W79  1  0.38091300  0.35774900  0.10949700  1
  N  N80  1  0.23884500  0.90892900  0.75000000  1
  N  N81  1  0.76115500  0.09107100  0.25000000  1
  N  N82  1  0.23884500  0.59107100  0.25000000  1
  N  N83  1  0.76115500  0.40892900  0.75000000  1
  N  N84  1  0.45564500  0.43216200  0.75000000  1
  N  N85  1  0.54435500  0.56783800  0.25000000  1
  N  N86  1  0.45564500  0.06783800  0.25000000  1
  N  N87  1  0.54435500  0.93216200  0.75000000  1
  N  N88  1  0.14380000  0.68140300  0.75000000  1
  N  N89  1  0.85620000  0.31859700  0.25000000  1
  N  N90  1  0.14380000  0.81859700  0.25000000  1
  N  N91  1  0.85620000  0.18140300  0.75000000  1
  N  N92  1  0.23397100  0.24279700  0.89895400  1
  N  N93  1  0.76602900  0.75720300  0.39895400  1
  N  N94  1  0.23397100  0.25720300  0.10104600  1
  N  N95  1  0.76602900  0.74279700  0.60104600  1
  N  N96  1  0.76602900  0.75720300  0.10104600  1
  N  N97  1  0.23397100  0.24279700  0.60104600  1
  N  N98  1  0.76602900  0.74279700  0.89895400  1
  N  N99  1  0.23397100  0.25720300  0.39895400  1
  N  N100  1  0.02153700  0.34587100  0.81415800  1
  N  N101  1  0.97846300  0.65412900  0.31415800  1
  N  N102  1  0.02153700  0.15412900  0.18584200  1
  N  N103  1  0.97846300  0.84587100  0.68584200  1
  N  N104  1  0.97846300  0.65412900  0.18584200  1
  N  N105  1  0.02153700  0.34587100  0.68584200  1
  N  N106  1  0.97846300  0.84587100  0.81415800  1
  N  N107  1  0.02153700  0.15412900  0.31415800  1
  N  N108  1  0.54462700  0.20331000  0.90797100  1
  N  N109  1  0.45537300  0.79669000  0.40797100  1
  N  N110  1  0.54462700  0.29669000  0.09202900  1
  N  N111  1  0.45537300  0.70331000  0.59202900  1
  N  N112  1  0.45537300  0.79669000  0.09202900  1
  N  N113  1  0.54462700  0.20331000  0.59202900  1
  N  N114  1  0.45537300  0.70331000  0.90797100  1
  N  N115  1  0.54462700  0.29669000  0.40797100  1
  N  N116  1  0.13336500  0.47263700  0.91578800  1
  N  N117  1  0.86663500  0.52736300  0.41578800  1
  N  N118  1  0.13336500  0.02736300  0.08421200  1
  N  N119  1  0.86663500  0.97263700  0.58421200  1
  N  N120  1  0.86663500  0.52736300  0.08421200  1
  N  N121  1  0.13336500  0.47263700  0.58421200  1
  N  N122  1  0.86663500  0.97263700  0.91578800  1
  N  N123  1  0.13336500  0.02736300  0.41578800  1
  N  N124  1  0.34807100  0.03078900  0.93724700  1
  N  N125  1  0.65192900  0.96921100  0.43724700  1
  N  N126  1  0.34807100  0.46921100  0.06275300  1
  N  N127  1  0.65192900  0.53078900  0.56275300  1
  N  N128  1  0.65192900  0.96921100  0.06275300  1
  N  N129  1  0.34807100  0.03078900  0.56275300  1
  N  N130  1  0.65192900  0.53078900  0.93724700  1
  N  N131  1  0.34807100  0.46921100  0.43724700  1
  N  N132  1  0.05623100  0.79331900  0.93421500  1
  N  N133  1  0.94376900  0.20668100  0.43421500  1
  N  N134  1  0.05623100  0.70668100  0.06578500  1
  N  N135  1  0.94376900  0.29331900  0.56578500  1
  N  N136  1  0.94376900  0.20668100  0.06578500  1
  N  N137  1  0.05623100  0.79331900  0.56578500  1
  N  N138  1  0.94376900  0.29331900  0.93421500  1
  N  N139  1  0.05623100  0.70668100  0.43421500  1
  N  N140  1  0.38431800  0.09423000  0.81355300  1
  N  N141  1  0.61568200  0.90577000  0.31355300  1
  N  N142  1  0.38431800  0.40577000  0.18644700  1
  N  N143  1  0.61568200  0.59423000  0.68644700  1
  N  N144  1  0.61568200  0.90577000  0.18644700  1
  N  N145  1  0.38431800  0.09423000  0.68644700  1
  N  N146  1  0.61568200  0.59423000  0.81355300  1
  N  N147  1  0.38431800  0.40577000  0.31355300  1
