# generated using pymatgen
data_Mg17(As3O16)2
_symmetry_space_group_name_H-M   'P 1'
_cell_length_a   6.04596735
_cell_length_b   9.82829193
_cell_length_c   10.38713166
_cell_angle_alpha   69.20534276
_cell_angle_beta   90.00000000
_cell_angle_gamma   90.00000000
_symmetry_Int_Tables_number   1
_chemical_formula_structural   Mg17(As3O16)2
_chemical_formula_sum   'Mg17 As6 O32'
_cell_volume   577.01286438
_cell_formula_units_Z   1
loop_
 _symmetry_equiv_pos_site_id
 _symmetry_equiv_pos_as_xyz
  1  'x, y, z'
loop_
 _atom_site_type_symbol
 _atom_site_label
 _atom_site_symmetry_multiplicity
 _atom_site_fract_x
 _atom_site_fract_y
 _atom_site_fract_z
 _atom_site_occupancy
  Mg  Mg0  1  0.25368801  0.26536850  0.99460471  1
  Mg  Mg1  1  0.50000000  0.73594109  0.75422489  1
  Mg  Mg2  1  0.74631199  0.26536850  0.99460471  1
  Mg  Mg3  1  0.00000000  0.27124268  0.74067055  1
  Mg  Mg4  1  0.24129981  0.74481012  0.50475489  1
  Mg  Mg5  1  0.24005499  0.99964280  0.73945178  1
  Mg  Mg6  1  0.24129981  0.25518988  0.49524511  1
  Mg  Mg7  1  0.00000000  0.72875732  0.25932945  1
  Mg  Mg8  1  0.75994501  0.99964280  0.73945178  1
  Mg  Mg9  1  0.75870019  0.74481012  0.50475489  1
  Mg  Mg10  1  0.75870019  0.25518988  0.49524511  1
  Mg  Mg11  1  0.24005499  0.00035720  0.26054822  1
  Mg  Mg12  1  0.50000000  0.26405891  0.24577511  1
  Mg  Mg13  1  0.25368801  0.73463150  0.00539529  1
  Mg  Mg14  1  0.74631199  0.73463150  0.00539529  1
  Mg  Mg15  1  0.75994501  0.00035720  0.26054822  1
  Mg  Mg16  1  0.50000000  -0.00000000  -0.00000000  1
  As  As17  1  0.00000000  0.57802428  0.80798432  1
  As  As18  1  0.50000000  0.42535208  0.68821283  1
  As  As19  1  0.50000000  0.57464792  0.31178717  1
  As  As20  1  0.00000000  0.42197572  0.19201568  1
  As  As21  1  0.50000000  -0.00000000  0.50000000  1
  As  As22  1  0.00000000  -0.00000000  -0.00000000  1
  O  O23  1  0.00000000  0.88448081  0.89220922  1
  O  O24  1  0.00000000  0.38915039  0.87172424  1
  O  O25  1  0.23086891  0.63227184  0.86753847  1
  O  O26  1  0.50000000  0.86680635  0.87999980  1
  O  O27  1  0.21675130  0.11615963  0.89045311  1
  O  O28  1  0.00000000  0.63041646  0.63561256  1
  O  O29  1  0.50000000  0.36754188  0.86305087  1
  O  O30  1  0.76913109  0.63227184  0.86753847  1
  O  O31  1  0.29255867  0.88063563  0.61438744  1
  O  O32  1  0.50000000  0.61278303  0.62835349  1
  O  O33  1  0.78324870  0.11615963  0.89045311  1
  O  O34  1  0.70744133  0.88063563  0.61438744  1
  O  O35  1  0.00000000  0.85772420  0.36851087  1
  O  O36  1  0.00000000  0.14227580  0.63148913  1
  O  O37  1  0.26987914  0.36860127  0.63143190  1
  O  O38  1  0.50000000  0.88427922  0.39077476  1
  O  O39  1  0.73012086  0.36860127  0.63143190  1
  O  O40  1  0.00000000  0.36958354  0.36438744  1
  O  O41  1  0.26987914  0.63139873  0.36856810  1
  O  O42  1  0.50000000  0.11572078  0.60922524  1
  O  O43  1  0.50000000  0.38721697  0.37164651  1
  O  O44  1  0.21675130  0.88384037  0.10954689  1
  O  O45  1  0.29255867  0.11936437  0.38561256  1
  O  O46  1  0.73012086  0.63139873  0.36856810  1
  O  O47  1  0.00000000  0.61084961  0.12827576  1
  O  O48  1  0.70744133  0.11936437  0.38561256  1
  O  O49  1  0.50000000  0.63245812  0.13694913  1
  O  O50  1  0.23086891  0.36772816  0.13246153  1
  O  O51  1  0.78324870  0.88384037  0.10954689  1
  O  O52  1  0.00000000  0.11551919  0.10779078  1
  O  O53  1  0.50000000  0.13319365  0.12000020  1
  O  O54  1  0.76913109  0.36772816  0.13246153  1
