# generated using pymatgen
data_Na3H6Ir
_symmetry_space_group_name_H-M   'P 1'
_cell_length_a   5.19789841
_cell_length_b   9.28109109
_cell_length_c   9.51066078
_cell_angle_alpha   90.00000000
_cell_angle_beta   90.00000000
_cell_angle_gamma   90.00000000
_symmetry_Int_Tables_number   1
_chemical_formula_structural   Na3H6Ir
_chemical_formula_sum   'Na12 H24 Ir4'
_cell_volume   458.81490103
_cell_formula_units_Z   4
loop_
 _symmetry_equiv_pos_site_id
 _symmetry_equiv_pos_as_xyz
  1  'x, y, z'
loop_
 _atom_site_type_symbol
 _atom_site_label
 _atom_site_symmetry_multiplicity
 _atom_site_fract_x
 _atom_site_fract_y
 _atom_site_fract_z
 _atom_site_occupancy
  Na  Na0  1  0.25000000  0.54596217  0.87212445  1
  Na  Na1  1  0.25000000  0.04596217  0.62787555  1
  Na  Na2  1  0.75000000  0.45403783  0.12787555  1
  Na  Na3  1  0.75000000  0.95403783  0.37212445  1
  Na  Na4  1  0.25000000  0.89692507  0.96530236  1
  Na  Na5  1  0.25000000  0.39692507  0.53469764  1
  Na  Na6  1  0.75000000  0.10307493  0.03469764  1
  Na  Na7  1  0.75000000  0.60307493  0.46530236  1
  Na  Na8  1  0.25000000  0.71959708  0.24955018  1
  Na  Na9  1  0.25000000  0.21959708  0.25044982  1
  Na  Na10  1  0.75000000  0.28040292  0.75044982  1
  Na  Na11  1  0.75000000  0.78040292  0.74955018  1
  H  H12  1  0.47854454  0.83120570  0.53151308  1
  H  H13  1  0.02145546  0.33120570  0.96848692  1
  H  H14  1  0.97854454  0.16879430  0.46848692  1
  H  H15  1  0.52145546  0.66879430  0.03151308  1
  H  H16  1  0.52145546  0.16879430  0.46848692  1
  H  H17  1  0.97854454  0.66879430  0.03151308  1
  H  H18  1  0.02145546  0.83120570  0.53151308  1
  H  H19  1  0.47854454  0.33120570  0.96848692  1
  H  H20  1  0.47166052  0.60974872  0.66229829  1
  H  H21  1  0.02833948  0.10974872  0.83770171  1
  H  H22  1  0.97166052  0.39025128  0.33770171  1
  H  H23  1  0.52833948  0.89025128  0.16229829  1
  H  H24  1  0.52833948  0.39025128  0.33770171  1
  H  H25  1  0.97166052  0.89025128  0.16229829  1
  H  H26  1  0.02833948  0.60974872  0.66229829  1
  H  H27  1  0.47166052  0.10974872  0.83770171  1
  H  H28  1  0.25000000  0.62287018  0.45237597  1
  H  H29  1  0.25000000  0.12287018  0.04762403  1
  H  H30  1  0.75000000  0.37712982  0.54762403  1
  H  H31  1  0.75000000  0.87712982  0.95237597  1
  H  H32  1  0.25000000  0.81599758  0.74759765  1
  H  H33  1  0.25000000  0.31599758  0.75240235  1
  H  H34  1  0.75000000  0.18400242  0.25240235  1
  H  H35  1  0.75000000  0.68400242  0.24759765  1
  Ir  Ir36  1  0.25000000  0.72211538  0.59769224  1
  Ir  Ir37  1  0.25000000  0.22211538  0.90230776  1
  Ir  Ir38  1  0.75000000  0.27788462  0.40230776  1
  Ir  Ir39  1  0.75000000  0.77788462  0.09769224  1
