# generated using pymatgen
data_Ca5Ge3O11
_symmetry_space_group_name_H-M   'P 1'
_cell_length_a   6.97294961
_cell_length_b   6.99590797
_cell_length_c   11.03299698
_cell_angle_alpha   85.41232973
_cell_angle_beta   84.60856310
_cell_angle_gamma   77.54786887
_symmetry_Int_Tables_number   1
_chemical_formula_structural   Ca5Ge3O11
_chemical_formula_sum   'Ca10 Ge6 O22'
_cell_volume   522.23889327
_cell_formula_units_Z   2
loop_
 _symmetry_equiv_pos_site_id
 _symmetry_equiv_pos_as_xyz
  1  'x, y, z'
loop_
 _atom_site_type_symbol
 _atom_site_label
 _atom_site_symmetry_multiplicity
 _atom_site_fract_x
 _atom_site_fract_y
 _atom_site_fract_z
 _atom_site_occupancy
  Ca  Ca0  1  0.00539793  0.03114505  0.24348547  1
  Ca  Ca1  1  0.07570662  0.45104949  0.75448915  1
  Ca  Ca2  1  0.45827335  0.09380044  0.76679163  1
  Ca  Ca3  1  0.28906303  0.70190824  0.00399569  1
  Ca  Ca4  1  0.31801106  0.67434535  0.49368807  1
  Ca  Ca5  1  0.68198894  0.32565465  0.50631193  1
  Ca  Ca6  1  0.71093697  0.29809176  0.99600431  1
  Ca  Ca7  1  0.54172665  0.90619956  0.23320837  1
  Ca  Ca8  1  0.92429338  0.54895051  0.24551085  1
  Ca  Ca9  1  0.99460207  0.96885495  0.75651453  1
  Ge  Ge10  1  0.20674118  0.21373156  0.01571494  1
  Ge  Ge11  1  0.19380282  0.18365295  0.46352271  1
  Ge  Ge12  1  0.45316770  0.42803065  0.26721528  1
  Ge  Ge13  1  0.54683230  0.57196935  0.73278472  1
  Ge  Ge14  1  0.80619718  0.81634705  0.53647729  1
  Ge  Ge15  1  0.79325882  0.78626844  0.98428506  1
  O  O16  1  0.16433334  0.15895530  0.62114562  1
  O  O17  1  0.13297367  0.15162807  0.87651293  1
  O  O18  1  0.36490026  0.34269989  0.42339276  1
  O  O19  1  0.60040059  0.22276521  0.20486598  1
  O  O20  1  0.02512347  0.71216332  0.60584603  1
  O  O21  1  0.24676457  0.57985501  0.21136465  1
  O  O22  1  0.71601327  0.03297391  0.61221361  1
  O  O23  1  0.00997493  0.68703954  0.89503573  1
  O  O24  1  0.70583365  0.00585799  0.89729679  1
  O  O25  1  0.37346872  0.36234552  0.96279309  1
  O  O26  1  0.40910540  0.42640196  0.66923043  1
  O  O27  1  0.59089460  0.57359804  0.33076957  1
  O  O28  1  0.62653128  0.63765448  0.03720691  1
  O  O29  1  0.29416635  0.99414201  0.10270321  1
  O  O30  1  0.99002507  0.31296046  0.10496427  1
  O  O31  1  0.28398673  0.96702609  0.38778639  1
  O  O32  1  0.75323543  0.42014499  0.78863535  1
  O  O33  1  0.97487653  0.28783668  0.39415397  1
  O  O34  1  0.39959941  0.77723479  0.79513402  1
  O  O35  1  0.63509974  0.65730011  0.57660724  1
  O  O36  1  0.86702633  0.84837193  0.12348707  1
  O  O37  1  0.83566666  0.84104470  0.37885438  1
