# generated using pymatgen
data_Cs6Co2O7
_symmetry_space_group_name_H-M   'P 1'
_cell_length_a   9.82555627
_cell_length_b   7.25438748
_cell_length_c   12.13057928
_cell_angle_alpha   54.37015417
_cell_angle_beta   90.00000000
_cell_angle_gamma   90.00000000
_symmetry_Int_Tables_number   1
_chemical_formula_structural   Cs6Co2O7
_chemical_formula_sum   'Cs12 Co4 O14'
_cell_volume   702.78381632
_cell_formula_units_Z   2
loop_
 _symmetry_equiv_pos_site_id
 _symmetry_equiv_pos_as_xyz
  1  'x, y, z'
loop_
 _atom_site_type_symbol
 _atom_site_label
 _atom_site_symmetry_multiplicity
 _atom_site_fract_x
 _atom_site_fract_y
 _atom_site_fract_z
 _atom_site_occupancy
  Cs  Cs0  1  0.29046867  0.91274506  0.71584934  1
  Cs  Cs1  1  0.85489227  0.44808215  0.91870230  1
  Cs  Cs2  1  0.97301764  0.69719840  0.55563492  1
  Cs  Cs3  1  0.47301764  0.30280160  0.94436508  1
  Cs  Cs4  1  0.20953133  0.91274506  0.21584934  1
  Cs  Cs5  1  0.35489227  0.55191785  0.58129770  1
  Cs  Cs6  1  0.64510773  0.44808215  0.41870230  1
  Cs  Cs7  1  0.79046867  0.08725494  0.78415066  1
  Cs  Cs8  1  0.52698236  0.69719840  0.05563492  1
  Cs  Cs9  1  0.02698236  0.30280160  0.44436508  1
  Cs  Cs10  1  0.14510773  0.55191785  0.08129770  1
  Cs  Cs11  1  0.70953133  0.08725494  0.28415066  1
  Co  Co12  1  0.63516135  0.82500485  0.62953068  1
  Co  Co13  1  0.13516135  0.17499515  0.87046932  1
  Co  Co14  1  0.86483865  0.82500485  0.12953068  1
  Co  Co15  1  0.36483865  0.17499515  0.37046932  1
  O  O16  1  0.28617050  0.00509422  0.92907104  1
  O  O17  1  0.58700269  0.76593061  0.78910221  1
  O  O18  1  0.50000000  0.00000000  0.50000000  1
  O  O19  1  0.21382950  0.00509422  0.42907104  1
  O  O20  1  0.16069123  0.43240200  0.85710215  1
  O  O21  1  0.66069123  0.56759800  0.64289785  1
  O  O22  1  0.91299731  0.76593061  0.28910221  1
  O  O23  1  -0.00000000  0.00000000  -0.00000000  1
  O  O24  1  0.08700269  0.23406939  0.71089779  1
  O  O25  1  0.33930877  0.43240200  0.35710215  1
  O  O26  1  0.83930877  0.56759800  0.14289785  1
  O  O27  1  0.78617050  0.99490578  0.57092896  1
  O  O28  1  0.41299731  0.23406939  0.21089779  1
  O  O29  1  0.71382950  0.99490578  0.07092896  1
