# generated using pymatgen
data_Hf2N2O
_symmetry_space_group_name_H-M   'P 1'
_cell_length_a   8.61724417
_cell_length_b   8.68812222
_cell_length_c   8.69182335
_cell_angle_alpha   109.66379402
_cell_angle_beta   109.34388593
_cell_angle_gamma   109.15812952
_symmetry_Int_Tables_number   1
_chemical_formula_structural   Hf2N2O
_chemical_formula_sum   'Hf16 N16 O8'
_cell_volume   502.45616189
_cell_formula_units_Z   8
loop_
 _symmetry_equiv_pos_site_id
 _symmetry_equiv_pos_as_xyz
  1  'x, y, z'
loop_
 _atom_site_type_symbol
 _atom_site_label
 _atom_site_symmetry_multiplicity
 _atom_site_fract_x
 _atom_site_fract_y
 _atom_site_fract_z
 _atom_site_occupancy
  Hf  Hf0  1  0.98940557  0.49114520  0.00055015  1
  Hf  Hf1  1  0.53398023  0.74885181  0.29112984  1
  Hf  Hf2  1  0.25025341  0.21349263  0.96533632  1
  Hf  Hf3  1  0.24674009  0.72074279  0.47189156  1
  Hf  Hf4  1  0.95347396  0.23907414  0.21045559  1
  Hf  Hf5  1  0.49781888  0.00016211  0.99917958  1
  Hf  Hf6  1  0.51024776  0.50313510  0.49969121  1
  Hf  Hf7  1  0.71925962  0.46350798  0.25911879  1
  Hf  Hf8  1  0.22112296  0.97644323  0.25956874  1
  Hf  Hf9  1  0.00737128  0.01094874  0.51037931  1
  Hf  Hf10  1  0.29228149  0.53240351  0.74766167  1
  Hf  Hf11  1  0.77361644  0.02537268  0.73736067  1
  Hf  Hf12  1  0.04188954  0.76000041  0.78622881  1
  Hf  Hf13  1  0.75224480  0.78995973  0.03291911  1
  Hf  Hf14  1  0.74780915  0.28287501  0.53459222  1
  Hf  Hf15  1  0.46609262  0.25153470  0.70813607  1
  N  N16  1  0.96762762  0.51424734  0.23707923  1
  N  N17  1  0.26051357  0.76644291  0.72779546  1
  N  N18  1  0.52479451  0.76947658  0.53939826  1
  N  N19  1  0.01338717  0.04498599  0.27176020  1
  N  N20  1  0.27323723  0.01113893  0.04601198  1
  N  N21  1  0.45485618  0.46472619  0.22430465  1
  N  N22  1  0.98700058  0.95548516  0.72769804  1
  N  N23  1  0.24157660  0.96539401  0.51128503  1
  N  N24  1  0.54798601  0.54101562  0.77476684  1
  N  N25  1  0.46791953  0.22972790  0.45590605  1
  N  N26  1  0.72759765  0.98695086  0.95374067  1
  N  N27  1  0.73520872  0.22563770  0.26875549  1
  N  N28  1  0.77739867  0.54709621  0.53603300  1
  N  N29  1  0.22590129  0.27572498  0.74035541  1
  N  N30  1  0.75659972  0.03004158  0.48152443  1
  N  N31  1  0.73183180  0.26700020  0.77996830  1
  O  O32  1  0.95508231  0.72222026  0.99101659  1
  O  O33  1  0.49084322  0.76362842  0.03746204  1
  O  O34  1  0.04861865  0.27735270  0.01278916  1
  O  O35  1  0.27204468  0.73540671  0.21446301  1
  O  O36  1  0.22268525  0.44747012  0.46640421  1
  O  O37  1  0.76715989  0.72478360  0.25455045  1
  O  O38  1  0.03950142  0.49363184  0.77184094  1
  O  O39  1  0.50702195  0.23076139  0.96089392  1
