# generated using pymatgen
data_Mn3(PO4)2
_symmetry_space_group_name_H-M   'P 1'
_cell_length_a   4.87770794
_cell_length_b   10.54978385
_cell_length_c   6.16601760
_cell_angle_alpha   90.74111175
_cell_angle_beta   89.99990821
_cell_angle_gamma   89.99974761
_symmetry_Int_Tables_number   1
_chemical_formula_structural   Mn3(PO4)2
_chemical_formula_sum   'Mn6 P4 O16'
_cell_volume   317.26910440
_cell_formula_units_Z   2
loop_
 _symmetry_equiv_pos_site_id
 _symmetry_equiv_pos_as_xyz
  1  'x, y, z'
loop_
 _atom_site_type_symbol
 _atom_site_label
 _atom_site_symmetry_multiplicity
 _atom_site_fract_x
 _atom_site_fract_y
 _atom_site_fract_z
 _atom_site_occupancy
  Mn  Mn0  1  0.00000405  0.00000596  0.50001838  1
  Mn  Mn1  1  0.98686869  0.28202855  0.23444456  1
  Mn  Mn2  1  0.01311998  0.71797193  0.76552105  1
  Mn  Mn3  1  0.49997370  0.49998659  0.49997499  1
  Mn  Mn4  1  0.51310520  0.78202506  0.23447962  1
  Mn  Mn5  1  0.48686504  0.21797083  0.76555786  1
  P  P6  1  0.06773760  0.60102871  0.26045898  1
  P  P7  1  0.43226539  0.10104576  0.26051946  1
  P  P8  1  0.56776794  0.89897081  0.73953846  1
  P  P9  1  0.93224114  0.39895699  0.73948189  1
  O  O10  1  0.17390211  0.68070512  0.07185878  1
  O  O11  1  0.32611077  0.18071249  0.07193082  1
  O  O12  1  0.67391698  0.81929250  0.92814202  1
  O  O13  1  0.82609351  0.31929242  0.92807350  1
  O  O14  1  0.32458434  0.96420547  0.25188031  1
  O  O15  1  0.17541404  0.46420381  0.25181502  1
  O  O16  1  0.82455009  0.53579543  0.74811271  1
  O  O17  1  0.67544178  0.03579413  0.74818873  1
  O  O18  1  0.75581863  0.60708479  0.28003272  1
  O  O19  1  0.74418325  0.10708413  0.28006992  1
  O  O20  1  0.25584602  0.89291666  0.71996237  1
  O  O21  1  0.24415373  0.39291928  0.71992903  1
  O  O22  1  0.21608688  0.66144291  0.46368850  1
  O  O23  1  0.28392953  0.16144996  0.46374358  1
  O  O24  1  0.71611288  0.83855868  0.53631410  1
  O  O25  1  0.78390675  0.33855004  0.53626164  1
