# generated using pymatgen
data_Cs4SiO4
_symmetry_space_group_name_H-M   'P 1'
_cell_length_a   6.83531482
_cell_length_b   11.37060340
_cell_length_c   11.58889440
_cell_angle_alpha   68.25775038
_cell_angle_beta   90.00000000
_cell_angle_gamma   90.00000000
_symmetry_Int_Tables_number   1
_chemical_formula_structural   Cs4SiO4
_chemical_formula_sum   'Cs16 Si4 O16'
_cell_volume   836.63137265
_cell_formula_units_Z   4
loop_
 _symmetry_equiv_pos_site_id
 _symmetry_equiv_pos_as_xyz
  1  'x, y, z'
loop_
 _atom_site_type_symbol
 _atom_site_label
 _atom_site_symmetry_multiplicity
 _atom_site_fract_x
 _atom_site_fract_y
 _atom_site_fract_z
 _atom_site_occupancy
  Cs  Cs0  1  0.57928044  0.28729429  0.07389981  1
  Cs  Cs1  1  0.12848394  0.42948608  0.14706132  1
  Cs  Cs2  1  0.92071956  0.78729429  0.07389981  1
  Cs  Cs3  1  0.30159017  0.08893715  0.38230183  1
  Cs  Cs4  1  0.37151606  0.92948608  0.14706132  1
  Cs  Cs5  1  0.80599317  0.23426954  0.40211449  1
  Cs  Cs6  1  0.19840983  0.58893715  0.38230183  1
  Cs  Cs7  1  0.30599317  0.26573046  0.59788551  1
  Cs  Cs8  1  0.69400683  0.73426954  0.40211449  1
  Cs  Cs9  1  0.80159017  0.41106285  0.61769817  1
  Cs  Cs10  1  0.19400683  0.76573046  0.59788551  1
  Cs  Cs11  1  0.62848394  0.07051392  0.85293868  1
  Cs  Cs12  1  0.69840983  0.91106285  0.61769817  1
  Cs  Cs13  1  0.07928044  0.21270571  0.92610019  1
  Cs  Cs14  1  0.87151606  0.57051392  0.85293868  1
  Cs  Cs15  1  0.42071956  0.71270571  0.92610019  1
  Si  Si16  1  0.87756169  0.02638704  0.23699485  1
  Si  Si17  1  0.62243831  0.52638704  0.23699485  1
  Si  Si18  1  0.37756169  0.47361296  0.76300515  1
  Si  Si19  1  0.12243831  0.97361296  0.76300515  1
  O  O20  1  0.79535134  0.01520300  0.10768213  1
  O  O21  1  0.99419323  0.16356672  0.20290264  1
  O  O22  1  0.70464866  0.51520300  0.10768213  1
  O  O23  1  0.47140756  0.40784787  0.31271951  1
  O  O24  1  0.50580677  0.66356672  0.20290264  1
  O  O25  1  0.81384056  0.52227899  0.32717835  1
  O  O26  1  0.02859244  0.90784787  0.31271951  1
  O  O27  1  0.31384056  0.97772101  0.67282165  1
  O  O28  1  0.68615944  0.02227899  0.32717835  1
  O  O29  1  0.97140756  0.09215213  0.68728049  1
  O  O30  1  0.18615944  0.47772101  0.67282165  1
  O  O31  1  0.49419323  0.33643328  0.79709736  1
  O  O32  1  0.52859244  0.59215213  0.68728049  1
  O  O33  1  0.29535134  0.48479700  0.89231787  1
  O  O34  1  0.00580677  0.83643328  0.79709736  1
  O  O35  1  0.20464866  0.98479700  0.89231787  1
