# generated using pymatgen
data_Nb9VO25
_symmetry_space_group_name_H-M   'P 1'
_cell_length_a   11.42351687
_cell_length_b   11.42351345
_cell_length_c   11.42333374
_cell_angle_alpha   91.62902619
_cell_angle_beta   91.63059052
_cell_angle_gamma   160.58206657
_symmetry_Int_Tables_number   1
_chemical_formula_structural   Nb9VO25
_chemical_formula_sum   'Nb9 V1 O25'
_cell_volume   488.49623689
_cell_formula_units_Z   1
loop_
 _symmetry_equiv_pos_site_id
 _symmetry_equiv_pos_as_xyz
  1  'x, y, z'
loop_
 _atom_site_type_symbol
 _atom_site_label
 _atom_site_symmetry_multiplicity
 _atom_site_fract_x
 _atom_site_fract_y
 _atom_site_fract_z
 _atom_site_occupancy
  Nb  Nb0  1  0.99997773  0.99997969  0.00000227  1
  Nb  Nb1  1  0.89087838  0.21565508  0.11214833  1
  Nb  Nb2  1  0.12520368  0.33485378  0.44120633  1
  Nb  Nb3  1  0.31600275  0.87478881  0.20964351  1
  Nb  Nb4  1  0.78434983  0.89650117  0.67523053  1
  Nb  Nb5  1  0.22126573  0.10911521  0.32476859  1
  Nb  Nb6  1  0.66514621  0.10636059  0.79035348  1
  Nb  Nb7  1  0.89365043  0.68400099  0.55879712  1
  Nb  Nb8  1  0.10350564  0.77873200  0.88785035  1
  V  V9  1  0.74999283  0.24999057  0.50000120  1
  O  O10  1  0.50000185  0.50000359  -0.00000094  1
  O  O11  1  0.94488272  0.11222532  0.06504443  1
  O  O12  1  0.17036010  0.21167527  0.39336072  1
  O  O13  1  0.38780627  0.75187108  0.13958686  1
  O  O14  1  0.01891152  0.28764424  0.29146241  1
  O  O15  1  0.22300889  0.82964827  0.04132022  1
  O  O16  1  0.64802329  0.84283885  0.48943774  1
  O  O17  1  0.84141594  0.35197883  0.19481702  1
  O  O18  1  0.24812807  0.38771499  0.63593502  1
  O  O19  1  0.45560838  0.93641823  0.37301749  1
  O  O20  1  0.06358596  0.43660058  0.51919076  1
  O  O21  1  0.88777634  0.95281648  0.83265096  1
  O  O22  1  0.27253428  0.98108135  0.26873682  1
  O  O23  1  0.71235461  0.00380830  0.73126329  1
  O  O24  1  0.12017177  0.05512669  0.16734792  1
  O  O25  1  0.91741675  0.54440224  0.48081224  1
  O  O26  1  0.56339654  0.08258598  0.62697922  1
  O  O27  1  0.75177833  0.61218949  0.36406502  1
  O  O28  1  0.15716311  0.64660007  0.80518271  1
  O  O29  1  0.35340036  0.15858369  0.51056170  1
  O  O30  1  0.78832524  0.18168325  0.95868146  1
  O  O31  1  0.99619109  0.72746046  0.70853692  1
  O  O32  1  0.61228867  0.24822429  0.86041353  1
  O  O33  1  0.81831544  0.77699692  0.60663673  1
  O  O34  1  0.04718427  0.87984266  0.93495903  1
