# generated using pymatgen
data_Na2SrLiVP2O9
_symmetry_space_group_name_H-M   'P 1'
_cell_length_a   6.98519600
_cell_length_b   10.69487900
_cell_length_c   10.76400200
_cell_angle_alpha   90.00000000
_cell_angle_beta   90.00000000
_cell_angle_gamma   90.00000000
_symmetry_Int_Tables_number   1
_chemical_formula_structural   Na2SrLiVP2O9
_chemical_formula_sum   'Na8 Sr4 Li4 V4 P8 O36'
_cell_volume   804.13366060
_cell_formula_units_Z   4
loop_
 _symmetry_equiv_pos_site_id
 _symmetry_equiv_pos_as_xyz
  1  'x, y, z'
loop_
 _atom_site_type_symbol
 _atom_site_label
 _atom_site_symmetry_multiplicity
 _atom_site_fract_x
 _atom_site_fract_y
 _atom_site_fract_z
 _atom_site_occupancy
  Na  Na0  1  0.48598400  0.64494500  0.76732300  1
  Na  Na1  1  0.01315700  0.65486900  0.75405600  1
  Na  Na2  1  0.51315700  0.15486900  0.74594400  1
  Na  Na3  1  0.98598400  0.14494500  0.73267700  1
  Na  Na4  1  0.01315700  0.84513100  0.25405600  1
  Na  Na5  1  0.48598400  0.85505500  0.26732300  1
  Na  Na6  1  0.51315700  0.34513100  0.24594400  1
  Na  Na7  1  0.98598400  0.35505500  0.23267700  1
  Sr  Sr8  1  0.75069400  0.92279700  0.93536700  1
  Sr  Sr9  1  0.25069400  0.42279700  0.56463300  1
  Sr  Sr10  1  0.75069400  0.57720300  0.43536700  1
  Sr  Sr11  1  0.25069400  0.07720300  0.06463300  1
  Li  Li12  1  0.96292900  0.49549900  0.96326500  1
  Li  Li13  1  0.46292900  0.99549900  0.53673500  1
  Li  Li14  1  0.96292900  0.00450100  0.46326500  1
  Li  Li15  1  0.46292900  0.50450100  0.03673500  1
  V  V16  1  0.74025900  0.29255200  0.97401300  1
  V  V17  1  0.24025900  0.79255200  0.52598700  1
  V  V18  1  0.74025900  0.20744800  0.47401300  1
  V  V19  1  0.24025900  0.70744800  0.02598700  1
  P  P20  1  0.24768000  0.35700100  0.91233100  1
  P  P21  1  0.25308300  0.91534900  0.80937300  1
  P  P22  1  0.75308300  0.41534900  0.69062700  1
  P  P23  1  0.74768000  0.85700100  0.58766900  1
  P  P24  1  0.24768000  0.14299900  0.41233100  1
  P  P25  1  0.25308300  0.58465100  0.30937300  1
  P  P26  1  0.75308300  0.08465100  0.19062700  1
  P  P27  1  0.74768000  0.64299900  0.08766900  1
  O  O28  1  0.42879700  0.32138400  0.99341300  1
  O  O29  1  0.06751700  0.31632400  0.98963200  1
  O  O30  1  0.24221400  0.50409200  0.90292300  1
  O  O31  1  0.75082300  0.14989300  0.89021300  1
  O  O32  1  0.42808600  0.98273900  0.86347000  1
  O  O33  1  0.07317100  0.98163400  0.85775900  1
  O  O34  1  0.24952300  0.77457800  0.84825900  1
  O  O35  1  0.76306300  0.42494900  0.83638100  1
  O  O36  1  0.25387800  0.29354500  0.78407800  1
  O  O37  1  0.75387800  0.79354500  0.71592200  1
  O  O38  1  0.26306300  0.92494900  0.66361900  1
  O  O39  1  0.74952300  0.27457800  0.65174100  1
  O  O40  1  0.57317100  0.48163400  0.64224100  1
  O  O41  1  0.92808600  0.48273900  0.63653000  1
  O  O42  1  0.25082300  0.64989300  0.60978700  1
  O  O43  1  0.74221400  0.00409200  0.59707700  1
  O  O44  1  0.92879700  0.82138400  0.50658700  1
  O  O45  1  0.56751700  0.81632400  0.51036800  1
  O  O46  1  0.42879700  0.17861600  0.49341300  1
  O  O47  1  0.06751700  0.18367600  0.48963200  1
  O  O48  1  0.24221400  0.99590800  0.40292300  1
  O  O49  1  0.75082300  0.35010700  0.39021300  1
  O  O50  1  0.42808600  0.51726100  0.36347000  1
  O  O51  1  0.07317100  0.51836600  0.35775900  1
  O  O52  1  0.24952300  0.72542200  0.34825900  1
  O  O53  1  0.76306300  0.07505100  0.33638100  1
  O  O54  1  0.25387800  0.20645500  0.28407800  1
  O  O55  1  0.75387800  0.70645500  0.21592200  1
  O  O56  1  0.26306300  0.57505100  0.16361900  1
  O  O57  1  0.74952300  0.22542200  0.15174100  1
  O  O58  1  0.92808600  0.01726100  0.13653000  1
  O  O59  1  0.57317100  0.01836600  0.14224100  1
  O  O60  1  0.25082300  0.85010700  0.10978700  1
  O  O61  1  0.74221400  0.49590800  0.09707700  1
  O  O62  1  0.92879700  0.67861600  0.00658700  1
  O  O63  1  0.56751700  0.68367600  0.01036800  1
