# generated using pymatgen
data_Li8TiO6
_symmetry_space_group_name_H-M   'P 1'
_cell_length_a   5.51465004
_cell_length_b   5.51462606
_cell_length_c   10.67435296
_cell_angle_alpha   90.00033623
_cell_angle_beta   90.00086429
_cell_angle_gamma   119.99577926
_symmetry_Int_Tables_number   1
_chemical_formula_structural   Li8TiO6
_chemical_formula_sum   'Li16 Ti2 O12'
_cell_volume   281.14132428
_cell_formula_units_Z   2
loop_
 _symmetry_equiv_pos_site_id
 _symmetry_equiv_pos_as_xyz
  1  'x, y, z'
loop_
 _atom_site_type_symbol
 _atom_site_label
 _atom_site_symmetry_multiplicity
 _atom_site_fract_x
 _atom_site_fract_y
 _atom_site_fract_z
 _atom_site_occupancy
  Li  Li0  1  0.99989187  0.68616608  0.76782283  1
  Li  Li1  1  0.00003555  0.59911405  0.12827431  1
  Li  Li2  1  0.99987742  0.40076664  0.62828284  1
  Li  Li3  1  -0.00006351  0.31358239  0.26774579  1
  Li  Li4  1  0.33340447  0.66672118  0.40553483  1
  Li  Li5  1  0.33332438  0.66662469  0.90568542  1
  Li  Li6  1  0.31351208  0.31352507  0.76781404  1
  Li  Li7  1  0.40092896  0.40092392  0.12832874  1
  Li  Li8  1  0.59901309  0.59901160  0.62833389  1
  Li  Li9  1  0.31358622  -0.00005593  0.26774192  1
  Li  Li10  1  0.68643421  0.68642906  0.26771421  1
  Li  Li11  1  0.40077407  0.99985957  0.62828485  1
  Li  Li12  1  0.66662927  0.33332051  0.90568511  1
  Li  Li13  1  0.66671067  0.33338824  0.40553731  1
  Li  Li14  1  0.59910689  0.00002701  0.12827353  1
  Li  Li15  1  0.68617781  0.99990222  0.76783137  1
  Ti  Ti16  1  -0.00011401  -0.00010632  0.99669243  1
  Ti  Ti17  1  1.00000048  1.00003139  0.49657583  1
  O  O18  1  0.00000558  0.68440342  0.94929056  1
  O  O19  1  1.00012253  0.31576387  0.44924426  1
  O  O20  1  0.33356555  0.66682885  0.21585911  1
  O  O21  1  1.00007631  1.00008038  0.17003012  1
  O  O22  1  -0.00003620  -0.00002362  0.66989338  1
  O  O23  1  0.33346121  0.66674772  0.71585205  1
  O  O24  1  0.31542744  0.31543398  0.94937445  1
  O  O25  1  0.31572712  1.00013774  0.44925975  1
  O  O26  1  0.68439595  0.68439377  0.44932357  1
  O  O27  1  0.66675996  0.33343138  0.71584991  1
  O  O28  1  0.66685205  0.33353093  0.21586648  1
  O  O29  1  0.68441157  0.00004021  0.94929112  1
