# generated using pymatgen
data_CsGaP3HO10
_symmetry_space_group_name_H-M   'P 1'
_cell_length_a   4.96888259
_cell_length_b   11.77893033
_cell_length_c   15.66310439
_cell_angle_alpha   90.00000000
_cell_angle_beta   90.00000000
_cell_angle_gamma   90.00000000
_symmetry_Int_Tables_number   1
_chemical_formula_structural   CsGaP3HO10
_chemical_formula_sum   'Cs4 Ga4 P12 H4 O40'
_cell_volume   916.73208222
_cell_formula_units_Z   4
loop_
 _symmetry_equiv_pos_site_id
 _symmetry_equiv_pos_as_xyz
  1  'x, y, z'
loop_
 _atom_site_type_symbol
 _atom_site_label
 _atom_site_symmetry_multiplicity
 _atom_site_fract_x
 _atom_site_fract_y
 _atom_site_fract_z
 _atom_site_occupancy
  Cs  Cs0  1  0.97176439  0.11504769  0.99872733  1
  Cs  Cs1  1  0.02823561  0.88495231  0.49872733  1
  Cs  Cs2  1  0.97176439  0.38495231  0.49872733  1
  Cs  Cs3  1  0.02823561  0.61504769  0.99872733  1
  Ga  Ga4  1  0.00166497  0.68132240  0.73401132  1
  Ga  Ga5  1  0.99833503  0.31867760  0.23401132  1
  Ga  Ga6  1  0.00166497  0.81867760  0.23401132  1
  Ga  Ga7  1  0.99833503  0.18132240  0.73401132  1
  P  P8  1  0.49967784  0.74112405  0.34812448  1
  P  P9  1  0.50032216  0.25887595  0.84812448  1
  P  P10  1  0.49967784  0.75887595  0.84812448  1
  P  P11  1  0.50032216  0.24112405  0.34812448  1
  P  P12  1  0.75885964  0.56959448  0.23820496  1
  P  P13  1  0.24114036  0.43040552  0.73820496  1
  P  P14  1  0.75885964  0.93040552  0.73820496  1
  P  P15  1  0.24114036  0.06959448  0.23820496  1
  P  P16  1  0.49378396  0.40407466  0.12469739  1
  P  P17  1  0.50621604  0.59592534  0.62469739  1
  P  P18  1  0.49378396  0.09592534  0.62469739  1
  P  P19  1  0.50621604  0.90407466  0.12469739  1
  H  H20  1  0.49005366  0.86194053  0.98859592  1
  H  H21  1  0.50994634  0.13805947  0.48859592  1
  H  H22  1  0.49005366  0.63805947  0.48859592  1
  H  H23  1  0.50994634  0.36194053  0.98859592  1
  O  O24  1  0.31835708  0.81516471  0.15897214  1
  O  O25  1  0.68164292  0.18483529  0.65897214  1
  O  O26  1  0.31835708  0.68483529  0.65897214  1
  O  O27  1  0.68164292  0.31516471  0.15897214  1
  O  O28  1  0.80160090  0.88019254  0.13587033  1
  O  O29  1  0.19839910  0.11980746  0.63587033  1
  O  O30  1  0.80160090  0.61980746  0.63587033  1
  O  O31  1  0.19839910  0.38019254  0.13587033  1
  O  O32  1  0.91310071  0.66344474  0.19638606  1
  O  O33  1  0.08689929  0.33655526  0.69638606  1
  O  O34  1  0.91310071  0.83655526  0.69638606  1
  O  O35  1  0.08689929  0.16344474  0.19638606  1
  O  O36  1  0.54940472  0.76696569  0.94289171  1
  O  O37  1  0.45059528  0.23303431  0.44289171  1
  O  O38  1  0.54940472  0.73303431  0.44289171  1
  O  O39  1  0.45059528  0.26696569  0.94289171  1
  O  O40  1  0.45017420  0.93295570  0.03002736  1
  O  O41  1  0.54982580  0.06704430  0.53002736  1
  O  O42  1  0.45017420  0.56704430  0.53002736  1
  O  O43  1  0.54982580  0.43295570  0.03002736  1
  O  O44  1  0.57256098  0.61612074  0.31075520  1
  O  O45  1  0.42743902  0.38387926  0.81075520  1
  O  O46  1  0.57256098  0.88387926  0.81075520  1
  O  O47  1  0.42743902  0.11612074  0.31075520  1
  O  O48  1  0.91481990  0.47276377  0.27407617  1
  O  O49  1  0.08518010  0.52723623  0.77407617  1
  O  O50  1  0.91481990  0.02723623  0.77407617  1
  O  O51  1  0.08518010  0.97276377  0.27407617  1
  O  O52  1  0.68113628  0.82645726  0.30527850  1
  O  O53  1  0.31886372  0.17354274  0.80527850  1
  O  O54  1  0.68113628  0.67354274  0.80527850  1
  O  O55  1  0.31886372  0.32645726  0.30527850  1
  O  O56  1  0.20356315  0.74194431  0.82995932  1
  O  O57  1  0.79643685  0.25805569  0.32995932  1
  O  O58  1  0.20356315  0.75805569  0.32995932  1
  O  O59  1  0.79643685  0.24194431  0.82995932  1
  O  O60  1  0.44618183  0.02455033  0.16836080  1
  O  O61  1  0.55381817  0.97544967  0.66836080  1
  O  O62  1  0.44618183  0.47544967  0.66836080  1
  O  O63  1  0.55381817  0.52455033  0.16836080  1
