# generated using pymatgen
data_Bi3O2F5
_symmetry_space_group_name_H-M   'P 1'
_cell_length_a   5.57034581
_cell_length_b   5.92956554
_cell_length_c   17.54519788
_cell_angle_alpha   90.00000000
_cell_angle_beta   90.00000000
_cell_angle_gamma   90.00000000
_symmetry_Int_Tables_number   1
_chemical_formula_structural   Bi3O2F5
_chemical_formula_sum   'Bi12 O8 F20'
_cell_volume   579.51315861
_cell_formula_units_Z   4
loop_
 _symmetry_equiv_pos_site_id
 _symmetry_equiv_pos_as_xyz
  1  'x, y, z'
loop_
 _atom_site_type_symbol
 _atom_site_label
 _atom_site_symmetry_multiplicity
 _atom_site_fract_x
 _atom_site_fract_y
 _atom_site_fract_z
 _atom_site_occupancy
  Bi  Bi0  1  0.20011607  0.53487598  0.59813487  1
  Bi  Bi1  1  0.20011607  0.53487598  0.90186513  1
  Bi  Bi2  1  0.25939289  0.96152242  0.75000000  1
  Bi  Bi3  1  0.24060711  0.46152242  0.25000000  1
  Bi  Bi4  1  0.29988393  0.03487598  0.09813487  1
  Bi  Bi5  1  0.29988393  0.03487598  0.40186513  1
  Bi  Bi6  1  0.70011607  0.96512402  0.90186513  1
  Bi  Bi7  1  0.70011607  0.96512402  0.59813487  1
  Bi  Bi8  1  0.75939289  0.53847758  0.75000000  1
  Bi  Bi9  1  0.74060711  0.03847758  0.25000000  1
  Bi  Bi10  1  0.79988393  0.46512402  0.40186513  1
  Bi  Bi11  1  0.79988393  0.46512402  0.09813487  1
  O  O12  1  0.01590995  0.23162518  0.17012060  1
  O  O13  1  0.01590995  0.23162518  0.32987940  1
  O  O14  1  0.48409005  0.73162518  0.82987940  1
  O  O15  1  0.48409005  0.73162518  0.67012060  1
  O  O16  1  0.51590995  0.26837482  0.17012060  1
  O  O17  1  0.51590995  0.26837482  0.32987940  1
  O  O18  1  0.98409005  0.76837482  0.67012060  1
  O  O19  1  0.98409005  0.76837482  0.82987940  1
  F  F20  1  0.17619672  0.40927438  0.75000000  1
  F  F21  1  0.07376151  0.28185020  0.01833391  1
  F  F22  1  0.07376151  0.28185020  0.48166609  1
  F  F23  1  0.15548481  0.65394944  0.12691197  1
  F  F24  1  0.15548481  0.65394944  0.37308803  1
  F  F25  1  0.34451519  0.15394944  0.87308803  1
  F  F26  1  0.34451519  0.15394944  0.62691197  1
  F  F27  1  0.42623849  0.78185020  0.51833391  1
  F  F28  1  0.42623849  0.78185020  0.98166609  1
  F  F29  1  0.32380328  0.90927438  0.25000000  1
  F  F30  1  0.67619672  0.09072562  0.75000000  1
  F  F31  1  0.57376151  0.21814980  0.01833391  1
  F  F32  1  0.57376151  0.21814980  0.48166609  1
  F  F33  1  0.65548481  0.84605056  0.37308803  1
  F  F34  1  0.65548481  0.84605056  0.12691197  1
  F  F35  1  0.84451519  0.34605056  0.62691197  1
  F  F36  1  0.84451519  0.34605056  0.87308803  1
  F  F37  1  0.92623849  0.71814980  0.98166609  1
  F  F38  1  0.92623849  0.71814980  0.51833391  1
  F  F39  1  0.82380328  0.59072562  0.25000000  1
