# generated using pymatgen
data_La2S2O
_symmetry_space_group_name_H-M   'P 1'
_cell_length_a   4.08091951
_cell_length_b   7.13686464
_cell_length_c   15.96676350
_cell_angle_alpha   90.00000000
_cell_angle_beta   90.00000000
_cell_angle_gamma   90.00000000
_symmetry_Int_Tables_number   1
_chemical_formula_structural   La2S2O
_chemical_formula_sum   'La8 S8 O4'
_cell_volume   465.03151032
_cell_formula_units_Z   4
loop_
 _symmetry_equiv_pos_site_id
 _symmetry_equiv_pos_as_xyz
  1  'x, y, z'
loop_
 _atom_site_type_symbol
 _atom_site_label
 _atom_site_symmetry_multiplicity
 _atom_site_fract_x
 _atom_site_fract_y
 _atom_site_fract_z
 _atom_site_occupancy
  La  La0  1  0.75000000  0.20863460  0.03873600  1
  La  La1  1  0.75000000  0.75921258  0.17301124  1
  La  La2  1  0.25000000  0.25921258  0.32698876  1
  La  La3  1  0.25000000  0.70863460  0.46126400  1
  La  La4  1  0.75000000  0.29136540  0.53873600  1
  La  La5  1  0.75000000  0.74078742  0.67301124  1
  La  La6  1  0.25000000  0.24078742  0.82698876  1
  La  La7  1  0.25000000  0.79136540  0.96126400  1
  S  S8  1  0.25000000  0.51417440  0.10660521  1
  S  S9  1  0.25000000  0.04207329  0.17374290  1
  S  S10  1  0.75000000  0.54207329  0.32625710  1
  S  S11  1  0.75000000  0.01417440  0.39339479  1
  S  S12  1  0.25000000  0.98582560  0.60660521  1
  S  S13  1  0.25000000  0.45792671  0.67374290  1
  S  S14  1  0.75000000  0.95792671  0.82625710  1
  S  S15  1  0.75000000  0.48582560  0.89339479  1
  O  O16  1  0.75000000  0.86663157  0.03305399  1
  O  O17  1  0.25000000  0.36663157  0.46694601  1
  O  O18  1  0.75000000  0.63336843  0.53305399  1
  O  O19  1  0.25000000  0.13336843  0.96694601  1
