# generated using pymatgen
data_Cd3S3O20
_symmetry_space_group_name_H-M   'P 1'
_cell_length_a   9.66765600
_cell_length_b   9.72751473
_cell_length_c   9.75947179
_cell_angle_alpha   84.57670998
_cell_angle_beta   85.16453580
_cell_angle_gamma   80.13461037
_symmetry_Int_Tables_number   1
_chemical_formula_structural   Cd3S3O20
_chemical_formula_sum   'Cd6 S6 O40'
_cell_volume   898.01105310
_cell_formula_units_Z   2
loop_
 _symmetry_equiv_pos_site_id
 _symmetry_equiv_pos_as_xyz
  1  'x, y, z'
loop_
 _atom_site_type_symbol
 _atom_site_label
 _atom_site_symmetry_multiplicity
 _atom_site_fract_x
 _atom_site_fract_y
 _atom_site_fract_z
 _atom_site_occupancy
  Cd  Cd0  1  0.98609200  0.01030600  0.24838900  1
  Cd  Cd1  1  0.02226900  0.98132500  0.75216600  1
  Cd  Cd2  1  0.49057000  0.25669500  0.49186400  1
  Cd  Cd3  1  0.74478100  0.50489600  0.01359000  1
  Cd  Cd4  1  0.52707800  0.74204300  0.49289200  1
  Cd  Cd5  1  0.25827200  0.47559400  0.00769900  1
  S  S6  1  0.48747000  0.51280800  0.25146800  1
  S  S7  1  0.50907300  0.49126100  0.75122000  1
  S  S8  1  0.75576100  0.99644200  0.53598100  1
  S  S9  1  0.00656200  0.24160100  0.96339400  1
  S  S10  1  0.25384000  0.01075600  0.45808000  1
  S  S11  1  0.98955600  0.74703900  0.04237900  1
  O  O12  1  0.40666200  0.56645000  0.12902600  1
  O  O13  1  0.43510400  0.59107500  0.37369200  1
  O  O14  1  0.60724900  0.45178700  0.86240100  1
  O  O15  1  0.54673700  0.39311700  0.64159600  1
  O  O16  1  0.47679500  0.36157600  0.28357300  1
  O  O17  1  0.63874600  0.52620300  0.21872600  1
  O  O18  1  0.51834100  0.63743600  0.69623600  1
  O  O19  1  0.36124700  0.48553800  0.80461100  1
  O  O20  1  0.86811700  0.93345800  0.43475900  1
  O  O21  1  0.06985000  0.12324500  0.05970500  1
  O  O22  1  0.14130000  0.05409400  0.56672600  1
  O  O23  1  0.94300100  0.86398900  0.93824700  1
  O  O24  1  0.70454300  0.14346700  0.48126000  1
  O  O25  1  0.86159200  0.29302900  0.02298000  1
  O  O26  1  0.32515100  0.86944600  0.50518500  1
  O  O27  1  0.13035400  0.67792400  0.99103600  1
  O  O28  1  0.81347900  0.99801200  0.67107000  1
  O  O29  1  0.99819600  0.19210300  0.82592300  1
  O  O30  1  0.19367600  0.00371500  0.32492300  1
  O  O31  1  0.00018500  0.80063300  0.17759300  1
  O  O32  1  0.63810500  0.91497100  0.55451200  1
  O  O33  1  0.09176500  0.35626000  0.94649600  1
  O  O34  1  0.35291900  0.11317600  0.43474200  1
  O  O35  1  0.88735600  0.64801700  0.06337900  1
  O  O36  1  0.69072700  0.07129400  0.13018900  1
  O  O37  1  0.93353300  0.30864900  0.37156700  1
  O  O38  1  0.31822800  0.91781000  0.87297000  1
  O  O39  1  0.07971300  0.68706600  0.63069700  1
  O  O40  1  0.32477800  0.22782900  0.13052600  1
  O  O41  1  0.77620700  0.66939600  0.38712200  1
  O  O42  1  0.66766100  0.80656600  0.84907900  1
  O  O43  1  0.19990000  0.33794200  0.64047500  1
  O  O44  1  0.23592200  0.29210600  0.21091700  1
  O  O45  1  0.71710000  0.75116800  0.29609900  1
  O  O46  1  0.76004100  0.73116000  0.78297500  1
  O  O47  1  0.27212700  0.24526100  0.71108400  1
  O  O48  1  0.64380800  0.11455800  0.01795400  1
  O  O49  1  0.87036400  0.38418100  0.45866300  1
  O  O50  1  0.35558000  0.87868700  0.98979100  1
  O  O51  1  0.11485400  0.65220100  0.51256000  1
