# generated using pymatgen
data_Pr4Se3(O5F3)2
_symmetry_space_group_name_H-M   'P 1'
_cell_length_a   11.87695907
_cell_length_b   11.87695907
_cell_length_c   8.44072339
_cell_angle_alpha   81.32627781
_cell_angle_beta   81.32627781
_cell_angle_gamma   35.28785153
_symmetry_Int_Tables_number   1
_chemical_formula_structural   Pr4Se3(O5F3)2
_chemical_formula_sum   'Pr8 Se6 O20 F12'
_cell_volume   679.16225102
_cell_formula_units_Z   2
loop_
 _symmetry_equiv_pos_site_id
 _symmetry_equiv_pos_as_xyz
  1  'x, y, z'
loop_
 _atom_site_type_symbol
 _atom_site_label
 _atom_site_symmetry_multiplicity
 _atom_site_fract_x
 _atom_site_fract_y
 _atom_site_fract_z
 _atom_site_occupancy
  Pr  Pr0  1  0.15141500  0.27403000  0.33063800  1
  Pr  Pr1  1  0.45121000  0.29027900  0.53489100  1
  Pr  Pr2  1  0.54878900  0.71142700  0.46487800  1
  Pr  Pr3  1  0.28287000  0.14666200  0.83175000  1
  Pr  Pr4  1  0.70869500  0.54654200  0.96758800  1
  Pr  Pr5  1  0.84835500  0.72478600  0.67087500  1
  Pr  Pr6  1  0.72366300  0.84915200  0.16725900  1
  Pr  Pr7  1  0.28378000  0.45515100  0.02664500  1
  Se  Se8  1  0.01751300  0.16989800  0.63873600  1
  Se  Se9  1  0.61496500  0.38403200  0.25402200  1
  Se  Se10  1  0.82433900  0.98838000  0.86312700  1
  Se  Se11  1  0.16568800  0.01778300  0.13846100  1
  Se  Se12  1  0.98282800  0.82881300  0.37177200  1
  Se  Se13  1  0.39262600  0.61077500  0.75296300  1
  O  O14  1  0.41900200  0.45546600  0.24046700  1
  O  O15  1  0.24563300  0.71272000  0.91666000  1
  O  O16  1  0.96141400  0.75310700  0.90223800  1
  O  O17  1  0.58605700  0.53824500  0.75123700  1
  O  O18  1  0.88751900  0.36856200  0.49496600  1
  O  O19  1  0.11340200  0.63141700  0.51156600  1
  O  O20  1  0.35735300  0.89850400  0.99476100  1
  O  O21  1  0.24794800  0.04517500  0.59889500  1
  O  O22  1  0.75489200  0.28599600  0.07637200  1
  O  O23  1  0.25586700  0.98087200  0.30799600  1
  O  O24  1  0.73674400  0.03114200  0.69190100  1
  O  O25  1  0.63405600  0.10903800  0.01394100  1
  O  O26  1  0.97828200  0.25777700  0.80457500  1
  O  O27  1  0.45993500  0.41343900  0.74567700  1
  O  O28  1  0.29278900  0.74523600  0.57550000  1
  O  O29  1  0.54686100  0.57521800  0.25484200  1
  O  O30  1  0.71059900  0.24976800  0.41401800  1
  O  O31  1  0.03876500  0.25437000  0.10123600  1
  O  O32  1  0.02223000  0.74235300  0.19610900  1
  O  O33  1  0.75405200  0.95514200  0.39666400  1
  F  F34  1  0.48853200  0.95901200  0.36701400  1
  F  F35  1  0.35198100  0.29394500  0.29625900  1
  F  F36  1  0.64082700  0.71544100  0.70653900  1
  F  F37  1  0.35036900  0.15419600  0.07921800  1
  F  F38  1  0.15127400  0.35231800  0.58182400  1
  F  F39  1  0.04141300  0.51550900  0.13206800  1
  F  F40  1  0.29341600  0.35280800  0.79787300  1
  F  F41  1  0.64430700  0.84405900  0.91790400  1
  F  F42  1  0.51705000  0.03436700  0.63830100  1
  F  F43  1  0.97096400  0.47884400  0.86568000  1
  F  F44  1  0.71500700  0.63996200  0.19996200  1
  F  F45  1  0.84600300  0.64934300  0.41665800  1
