# generated using pymatgen
data_PtO2
_symmetry_space_group_name_H-M   'P 1'
_cell_length_a   3.13141957
_cell_length_b   3.13141925
_cell_length_c   8.58337362
_cell_angle_alpha   90.00000000
_cell_angle_beta   90.00000000
_cell_angle_gamma   120.00000353
_symmetry_Int_Tables_number   1
_chemical_formula_structural   PtO2
_chemical_formula_sum   'Pt2 O4'
_cell_volume   72.89053051
_cell_formula_units_Z   2
loop_
 _symmetry_equiv_pos_site_id
 _symmetry_equiv_pos_as_xyz
  1  'x, y, z'
loop_
 _atom_site_type_symbol
 _atom_site_label
 _atom_site_symmetry_multiplicity
 _atom_site_fract_x
 _atom_site_fract_y
 _atom_site_fract_z
 _atom_site_occupancy
  Pt  Pt0  1  0.66666700  0.33333300  0.49998614  1
  Pt  Pt1  1  0.33333300  0.66666700  -0.00001386  1
  O  O2  1  -0.00000000  0.00000000  0.10918539  1
  O  O3  1  0.00000000  -0.00000000  0.60918539  1
  O  O4  1  0.33333300  0.66666700  0.39082647  1
  O  O5  1  0.66666700  0.33333300  0.89082647  1
