# generated using pymatgen
data_Na5SbO5
_symmetry_space_group_name_H-M   'P 1'
_cell_length_a   4.39609126
_cell_length_b   5.78139713
_cell_length_c   6.36435963
_cell_angle_alpha   72.78178037
_cell_angle_beta   90.03018146
_cell_angle_gamma   67.66127680
_symmetry_Int_Tables_number   1
_chemical_formula_structural   Na5SbO5
_chemical_formula_sum   'Na5 Sb1 O5'
_cell_volume   141.73504180
_cell_formula_units_Z   1
loop_
 _symmetry_equiv_pos_site_id
 _symmetry_equiv_pos_as_xyz
  1  'x, y, z'
loop_
 _atom_site_type_symbol
 _atom_site_label
 _atom_site_symmetry_multiplicity
 _atom_site_fract_x
 _atom_site_fract_y
 _atom_site_fract_z
 _atom_site_occupancy
  Na  Na0  1  0.67855555  0.64271349  0.85591869  1
  Na  Na1  1  0.69971016  0.60153129  0.32337164  1
  Na  Na2  1  0.30097505  0.39896036  0.67419046  1
  Na  Na3  1  0.32110297  0.35737306  0.14228238  1
  Na  Na4  1  0.99597943  0.00041801  0.49895193  1
  Sb  Sb5  1  0.00947671  0.00005513  0.99892822  1
  O  O6  1  0.13125586  0.73442641  0.84337376  1
  O  O7  1  0.14325302  0.71231164  0.29305908  1
  O  O8  1  0.85506365  0.28802913  0.70480960  1
  O  O9  1  0.86574789  0.26586457  0.15442186  1
  O  O10  1  0.49246971  0.00014589  0.99892838  1
