# generated using pymatgen
data_NaLuO2
_symmetry_space_group_name_H-M   'P 1'
_cell_length_a   7.18338303
_cell_length_b   7.18338303
_cell_length_c   5.73322638
_cell_angle_alpha   75.81187942
_cell_angle_beta   75.81187942
_cell_angle_gamma   126.38827120
_symmetry_Int_Tables_number   1
_chemical_formula_structural   NaLuO2
_chemical_formula_sum   'Na4 Lu4 O8'
_cell_volume   199.90856570
_cell_formula_units_Z   4
loop_
 _symmetry_equiv_pos_site_id
 _symmetry_equiv_pos_as_xyz
  1  'x, y, z'
loop_
 _atom_site_type_symbol
 _atom_site_label
 _atom_site_symmetry_multiplicity
 _atom_site_fract_x
 _atom_site_fract_y
 _atom_site_fract_z
 _atom_site_occupancy
  Na  Na0  1  0.55530244  0.44469756  0.75000000  1
  Na  Na1  1  0.67985763  0.32014237  0.25000000  1
  Na  Na2  1  0.32014237  0.67985763  0.75000000  1
  Na  Na3  1  0.44469756  0.55530244  0.25000000  1
  Lu  Lu4  1  0.19338232  0.80661768  0.25000000  1
  Lu  Lu5  1  0.93284902  0.06715098  0.25000000  1
  Lu  Lu6  1  0.06715098  0.93284902  0.75000000  1
  Lu  Lu7  1  0.80661768  0.19338232  0.75000000  1
  O  O8  1  0.14064541  0.26770097  0.79190773  1
  O  O9  1  0.95819273  0.58212765  0.71025614  1
  O  O10  1  0.26770097  0.14064541  0.29190773  1
  O  O11  1  0.41787235  0.04180727  0.78974386  1
  O  O12  1  0.58212765  0.95819273  0.21025614  1
  O  O13  1  0.73229903  0.85935459  0.70809227  1
  O  O14  1  0.04180727  0.41787235  0.28974386  1
  O  O15  1  0.85935459  0.73229903  0.20809227  1
