# generated using pymatgen
data_Cs2MgH12(SeO7)2
_symmetry_space_group_name_H-M   'P 1'
_cell_length_a   12.97042283
_cell_length_b   6.43989579
_cell_length_c   9.45447886
_cell_angle_alpha   73.93461126
_cell_angle_beta   90.00000000
_cell_angle_gamma   90.00000000
_symmetry_Int_Tables_number   1
_chemical_formula_structural   Cs2MgH12(SeO7)2
_chemical_formula_sum   'Cs4 Mg2 H24 Se4 O28'
_cell_volume   758.87418264
_cell_formula_units_Z   2
loop_
 _symmetry_equiv_pos_site_id
 _symmetry_equiv_pos_as_xyz
  1  'x, y, z'
loop_
 _atom_site_type_symbol
 _atom_site_label
 _atom_site_symmetry_multiplicity
 _atom_site_fract_x
 _atom_site_fract_y
 _atom_site_fract_z
 _atom_site_occupancy
  Cs  Cs0  1  0.35161844  0.65157411  0.13321146  1
  Cs  Cs1  1  0.85161844  0.34842589  0.36678854  1
  Cs  Cs2  1  0.14838156  0.65157411  0.63321146  1
  Cs  Cs3  1  0.64838156  0.34842589  0.86678854  1
  Mg  Mg4  1  -0.00000000  0.00000000  -0.00000000  1
  Mg  Mg5  1  0.50000000  0.00000000  0.50000000  1
  H  H6  1  0.05775809  0.33640240  0.09683302  1
  H  H7  1  0.86443014  0.68382998  0.02391626  1
  H  H8  1  0.40689689  0.07322505  0.23030228  1
  H  H9  1  0.62921535  0.09040173  0.26781855  1
  H  H10  1  0.09487615  0.68516332  0.20406659  1
  H  H11  1  0.82014768  0.99152750  0.14965449  1
  H  H12  1  0.32014768  0.00847250  0.35034551  1
  H  H13  1  0.59487615  0.31483668  0.29593341  1
  H  H14  1  0.12921535  0.90959827  0.23218145  1
  H  H15  1  0.90689689  0.92677495  0.26969772  1
  H  H16  1  0.36443014  0.31617002  0.47608374  1
  H  H17  1  0.55775809  0.66359760  0.40316698  1
  H  H18  1  0.44224191  0.33640240  0.59683302  1
  H  H19  1  0.63556986  0.68382998  0.52391626  1
  H  H20  1  0.09310311  0.07322505  0.73030228  1
  H  H21  1  0.87078465  0.09040173  0.76781855  1
  H  H22  1  0.40512385  0.68516332  0.70406659  1
  H  H23  1  0.67985232  0.99152750  0.64965449  1
  H  H24  1  0.17985232  0.00847250  0.85034551  1
  H  H25  1  0.90512385  0.31483668  0.79593341  1
  H  H26  1  0.37078465  0.90959827  0.73218145  1
  H  H27  1  0.59310311  0.92677495  0.76969772  1
  H  H28  1  0.13556986  0.31617002  0.97608374  1
  H  H29  1  0.94224191  0.66359760  0.90316698  1
  Se  Se30  1  0.64507069  0.74150222  0.10238774  1
  Se  Se31  1  0.14507069  0.25849778  0.39761226  1
  Se  Se32  1  0.85492931  0.74150222  0.60238774  1
  Se  Se33  1  0.35492931  0.25849778  0.89761226  1
  O  O34  1  0.06329780  0.28737943  0.00753285  1
  O  O35  1  0.42776598  0.19468656  0.04645066  1
  O  O36  1  0.89435633  0.00746223  0.16637845  1
  O  O37  1  0.74452750  0.59459701  0.07836371  1
  O  O38  1  0.10687228  0.83998999  0.15714597  1
  O  O39  1  0.68696174  0.96204303  0.14331130  1
  O  O40  1  0.07503457  0.40765205  0.25971468  1
  O  O41  1  0.57503457  0.59234795  0.24028532  1
  O  O42  1  0.18696174  0.03795697  0.35668870  1
  O  O43  1  0.60687228  0.16001001  0.34285403  1
  O  O44  1  0.24452750  0.40540299  0.42163629  1
  O  O45  1  0.39435633  0.99253777  0.33362155  1
  O  O46  1  0.43670220  0.28737943  0.50753285  1
  O  O47  1  0.07223402  0.19468656  0.54645066  1
  O  O48  1  0.92776598  0.80531344  0.45354934  1
  O  O49  1  0.56329780  0.71262057  0.49246715  1
  O  O50  1  0.60564367  0.00746223  0.66637845  1
  O  O51  1  0.75547250  0.59459701  0.57836371  1
  O  O52  1  0.39312772  0.83998999  0.65714597  1
  O  O53  1  0.81303826  0.96204303  0.64331130  1
  O  O54  1  0.42496543  0.40765205  0.75971468  1
  O  O55  1  0.92496543  0.59234795  0.74028532  1
  O  O56  1  0.31303826  0.03795697  0.85668870  1
  O  O57  1  0.89312772  0.16001001  0.84285403  1
  O  O58  1  0.25547250  0.40540299  0.92163629  1
  O  O59  1  0.10564367  0.99253777  0.83362155  1
  O  O60  1  0.57223402  0.80531344  0.95354934  1
  O  O61  1  0.93670220  0.71262057  0.99246715  1
