# generated using pymatgen
data_NdInO3
_symmetry_space_group_name_H-M   'P 1'
_cell_length_a   5.63595378
_cell_length_b   5.94569456
_cell_length_c   8.17509696
_cell_angle_alpha   90.00000000
_cell_angle_beta   90.00000000
_cell_angle_gamma   90.00000000
_symmetry_Int_Tables_number   1
_chemical_formula_structural   NdInO3
_chemical_formula_sum   'Nd4 In4 O12'
_cell_volume   273.94471739
_cell_formula_units_Z   4
loop_
 _symmetry_equiv_pos_site_id
 _symmetry_equiv_pos_as_xyz
  1  'x, y, z'
loop_
 _atom_site_type_symbol
 _atom_site_label
 _atom_site_symmetry_multiplicity
 _atom_site_fract_x
 _atom_site_fract_y
 _atom_site_fract_z
 _atom_site_occupancy
  Nd  Nd0  1  0.98049891  0.06285875  0.25000000  1
  Nd  Nd1  1  0.48049891  0.43714125  0.75000000  1
  Nd  Nd2  1  0.51950109  0.56285875  0.25000000  1
  Nd  Nd3  1  0.01950109  0.93714125  0.75000000  1
  In  In4  1  0.50000000  -0.00000000  0.00000000  1
  In  In5  1  0.50000000  -0.00000000  0.50000000  1
  In  In6  1  0.00000000  0.50000000  0.00000000  1
  In  In7  1  0.00000000  0.50000000  0.50000000  1
  O  O8  1  0.62374248  0.05186043  0.75000000  1
  O  O9  1  0.19081429  0.19415769  0.56391173  1
  O  O10  1  0.19081429  0.19415769  0.93608827  1
  O  O11  1  0.69081429  0.30584231  0.06391173  1
  O  O12  1  0.69081429  0.30584231  0.43608827  1
  O  O13  1  0.12374248  0.44813957  0.25000000  1
  O  O14  1  0.87625752  0.55186043  0.75000000  1
  O  O15  1  0.30918571  0.69415769  0.93608827  1
  O  O16  1  0.30918571  0.69415769  0.56391173  1
  O  O17  1  0.80918571  0.80584231  0.06391173  1
  O  O18  1  0.80918571  0.80584231  0.43608827  1
  O  O19  1  0.37625752  0.94813957  0.25000000  1
