# generated using pymatgen
data_Mg3(AsO4)2
_symmetry_space_group_name_H-M   'P 1'
_cell_length_a   10.57309575
_cell_length_b   10.57309175
_cell_length_c   10.57306819
_cell_angle_alpha   142.43698833
_cell_angle_beta   142.43726529
_cell_angle_gamma   54.17073102
_symmetry_Int_Tables_number   1
_chemical_formula_structural   Mg3(AsO4)2
_chemical_formula_sum   'Mg9 As6 O24'
_cell_volume   436.33176973
_cell_formula_units_Z   3
loop_
 _symmetry_equiv_pos_site_id
 _symmetry_equiv_pos_as_xyz
  1  'x, y, z'
loop_
 _atom_site_type_symbol
 _atom_site_label
 _atom_site_symmetry_multiplicity
 _atom_site_fract_x
 _atom_site_fract_y
 _atom_site_fract_z
 _atom_site_occupancy
  Mg  Mg0  1  0.12852982  0.63233030  0.00862772  1
  Mg  Mg1  1  0.74997857  0.24997239  0.49997864  1
  Mg  Mg2  1  0.22732556  0.22732478  0.00000289  1
  Mg  Mg3  1  0.88014608  0.87148934  0.50385521  1
  Mg  Mg4  1  0.62367912  0.11986624  0.99131259  1
  Mg  Mg5  1  0.47885096  0.97884813  0.49999900  1
  Mg  Mg6  1  0.77267585  0.77267614  -0.00000094  1
  Mg  Mg7  1  0.02111537  0.52113150  0.49995298  1
  Mg  Mg8  1  0.36767718  0.37633007  0.49624907  1
  As  As9  1  0.00001468  0.00000375  0.00000629  1
  As  As10  1  0.62708467  0.52990903  0.40561322  1
  As  As11  1  0.12428089  0.22146008  0.59436801  1
  As  As12  1  0.47008947  0.87571229  0.09718086  1
  As  As13  1  0.24999379  0.74999676  0.49999580  1
  As  As14  1  0.77854462  0.37292723  0.90284876  1
  O  O15  1  0.16319311  0.90390831  0.15752939  1
  O  O16  1  0.44074073  0.67557790  0.32823958  1
  O  O17  1  0.80661924  0.61805068  0.72955325  1
  O  O18  1  0.92294115  0.19339284  0.81143794  1
  O  O19  1  0.14433754  0.45155778  0.71439776  1
  O  O20  1  0.08120939  0.31101922  0.78380064  1
  O  O21  1  0.52719450  0.29741726  0.21618102  1
  O  O22  1  0.73714428  0.42991107  0.28556034  1
  O  O23  1  0.38195918  0.11151762  0.18859022  1
  O  O24  1  0.99435756  0.83681022  0.74072914  1
  O  O25  1  0.57008935  0.85565604  0.30723858  1
  O  O26  1  0.88848794  0.07705044  0.27042778  1
  O  O27  1  0.34732479  0.11249337  0.67174838  1
  O  O28  1  0.70258743  0.91877470  0.22978918  1
  O  O29  1  0.14689337  0.91724660  0.65042730  1
  O  O30  1  0.74639070  0.00565554  0.84246708  1
  O  O31  1  0.50351898  0.85310464  0.77033605  1
  O  O32  1  0.32442329  0.65267770  0.76517911  1
  O  O33  1  0.88750295  0.55927019  0.23484621  1
  O  O34  1  0.08276227  0.73317542  0.22965049  1
  O  O35  1  0.26681729  0.49647571  0.34959117  1
  O  O36  1  0.68897746  0.47280573  0.77021630  1
  O  O37  1  0.54844656  0.26284702  0.69279568  1
  O  O38  1  0.09609731  0.25362395  0.25927929  1
