# generated using pymatgen
data_Li6V3P8O29
_symmetry_space_group_name_H-M   'P 1'
_cell_length_a   9.80770900
_cell_length_b   9.81656480
_cell_length_c   14.03662708
_cell_angle_alpha   89.54656609
_cell_angle_beta   89.43441008
_cell_angle_gamma   60.17696794
_symmetry_Int_Tables_number   1
_chemical_formula_structural   Li6V3P8O29
_chemical_formula_sum   'Li12 V6 P16 O58'
_cell_volume   1172.38008639
_cell_formula_units_Z   2
loop_
 _symmetry_equiv_pos_site_id
 _symmetry_equiv_pos_as_xyz
  1  'x, y, z'
loop_
 _atom_site_type_symbol
 _atom_site_label
 _atom_site_symmetry_multiplicity
 _atom_site_fract_x
 _atom_site_fract_y
 _atom_site_fract_z
 _atom_site_occupancy
  Li  Li0  1  0.89636000  0.34429600  0.93780300  1
  Li  Li1  1  0.76514700  0.33315800  0.43883700  1
  Li  Li2  1  0.90500600  0.76550800  0.44274600  1
  Li  Li3  1  0.76584900  0.90648500  0.94306500  1
  Li  Li4  1  0.33193100  0.76629700  0.93939100  1
  Li  Li5  1  0.68299400  0.08653100  0.56223700  1
  Li  Li6  1  0.34375200  0.89840800  0.43794100  1
  Li  Li7  1  0.32418500  0.33658200  0.39200400  1
  Li  Li8  1  0.33688400  0.32369200  0.89166300  1
  Li  Li9  1  0.08655900  0.68372500  0.06075500  1
  Li  Li10  1  0.98043700  0.05054400  0.00280300  1
  Li  Li11  1  0.05064600  0.98013400  0.50144900  1
  V  V12  1  0.56076400  0.99810100  0.75211200  1
  V  V13  1  0.43288800  0.00211000  0.24263500  1
  V  V14  1  0.56647200  0.43455500  0.25047400  1
  V  V15  1  0.43872700  0.56270300  0.75027500  1
  V  V16  1  0.00171700  0.43339800  0.74399200  1
  V  V17  1  0.99831500  0.56142900  0.25247500  1
  P  P18  1  0.91349100  0.31381400  0.15653500  1
  P  P19  1  0.77257500  0.31173900  0.65600500  1
  P  P20  1  0.91454700  0.77591400  0.65696100  1
  P  P21  1  0.66977900  0.66414100  0.87059300  1
  P  P22  1  0.66354500  0.67118400  0.37003900  1
  P  P23  1  0.77715200  0.91451600  0.15697400  1
  P  P24  1  0.68028100  0.09014900  0.34122200  1
  P  P25  1  0.31313700  0.77113200  0.15519600  1
  P  P26  1  0.69255000  0.21929800  0.84113800  1
  P  P27  1  0.31308900  0.91297700  0.65542100  1
  P  P28  1  0.21418000  0.08838500  0.83867100  1
  P  P29  1  0.33760500  0.33275800  0.63204100  1
  P  P30  1  0.33298200  0.33633500  0.13170500  1
  P  P31  1  0.08813400  0.21434700  0.33922400  1
  P  P32  1  0.22061400  0.69220800  0.34069700  1
  P  P33  1  0.09092000  0.68100700  0.84056600  1
  O  O34  1  0.99044200  0.20568800  0.41903600  1
  O  O35  1  0.91460300  0.33429800  0.66287100  1
  O  O36  1  0.79972200  0.21196700  0.91862600  1
  O  O37  1  0.74569900  0.33998100  0.17393600  1
  O  O38  1  0.91136300  0.47013400  0.17028200  1
  O  O39  1  0.81642300  0.51696900  0.82603900  1
  O  O40  1  0.91213900  0.62094100  0.66814500  1
  O  O41  1  0.99748300  0.76490100  0.92840900  1
  O  O42  1  0.92021300  0.74678500  0.16438300  1
  O  O43  1  0.66881100  0.51764600  0.33563500  1
  O  O44  1  0.62003300  0.46956800  0.67250900  1
  O  O45  1  0.81582600  0.66966000  0.32767400  1
  O  O46  1  0.67895100  0.66223000  0.97640200  1
  O  O47  1  0.66334500  0.68238800  0.47577200  1
  O  O48  1  0.66817400  0.81556100  0.82886400  1
  O  O49  1  0.46813700  0.61881600  0.17272500  1
  O  O50  1  0.51714900  0.66751500  0.83435000  1
  O  O51  1  0.74717700  0.91936500  0.66550700  1
  O  O52  1  0.78936000  0.00691500  0.24960600  1
  O  O53  1  0.76393200  0.99787200  0.42923700  1
  O  O54  1  0.79079000  0.99060800  0.06700200  1
  O  O55  1  0.62238100  0.91134700  0.16770700  1
  O  O56  1  0.51733400  0.81735400  0.32505200  1
  O  O57  1  0.65762700  0.08180400  0.84702700  1
  O  O58  1  0.46750600  0.91775600  0.66909500  1
  O  O59  1  0.34081700  0.74737200  0.67165300  1
  O  O60  1  0.78418600  0.19473700  0.74095700  1
  O  O61  1  0.76830000  0.23328900  0.56467100  1
  O  O62  1  0.21472900  0.79805400  0.41881200  1
  O  O63  1  0.65808000  0.25768900  0.34524900  1
  O  O64  1  0.51668700  0.10576600  0.32814800  1
  O  O65  1  0.33681000  0.91279100  0.16151000  1
  O  O66  1  0.48743500  0.18447100  0.67308700  1
  O  O67  1  0.36804300  0.09979000  0.83173400  1
  O  O68  1  0.20743400  0.99171200  0.91971500  1
  O  O69  1  0.23577200  0.97972400  0.56188400  1
  O  O70  1  0.19556300  0.01757900  0.73983500  1
  O  O71  1  0.25772100  0.07650100  0.34132900  1
  O  O72  1  0.47783700  0.33151100  0.17691800  1
  O  O73  1  0.53102000  0.37276000  0.83469700  1
  O  O74  1  0.32864300  0.18840400  0.17272300  1
  O  O75  1  0.32735400  0.34339200  0.02539700  1
  O  O76  1  0.34409700  0.33030400  0.52564000  1
  O  O77  1  0.18916900  0.33042000  0.67285200  1
  O  O78  1  0.37551500  0.53055600  0.33337200  1
  O  O79  1  0.33543200  0.47856500  0.67718200  1
  O  O80  1  0.07552100  0.25806000  0.84114500  1
  O  O81  1  0.01855700  0.19533700  0.23920000  1
  O  O82  1  0.97662800  0.23836100  0.06210000  1
  O  O83  1  0.09670700  0.36953900  0.33320500  1
  O  O84  1  0.18299000  0.48548400  0.17408400  1
  O  O85  1  0.10692500  0.51679700  0.82767800  1
  O  O86  1  0.25783800  0.65905200  0.84445900  1
  O  O87  1  0.23125400  0.77025100  0.06449000  1
  O  O88  1  0.19592100  0.78359500  0.24101200  1
  O  O89  1  0.08327800  0.65737400  0.34731400  1
  O  O90  1  0.98920000  0.78935100  0.56614200  1
  O  O91  1  0.00850800  0.78802000  0.74837300  1
