# generated using pymatgen
data_Nd3SbO7
_symmetry_space_group_name_H-M   'P 1'
_cell_length_a   6.63992456
_cell_length_b   6.63992456
_cell_length_c   7.66276199
_cell_angle_alpha   90.00000000
_cell_angle_beta   90.00000000
_cell_angle_gamma   110.77339079
_symmetry_Int_Tables_number   1
_chemical_formula_structural   Nd3SbO7
_chemical_formula_sum   'Nd6 Sb2 O14'
_cell_volume   315.87759417
_cell_formula_units_Z   2
loop_
 _symmetry_equiv_pos_site_id
 _symmetry_equiv_pos_as_xyz
  1  'x, y, z'
loop_
 _atom_site_type_symbol
 _atom_site_label
 _atom_site_symmetry_multiplicity
 _atom_site_fract_x
 _atom_site_fract_y
 _atom_site_fract_z
 _atom_site_occupancy
  Nd  Nd0  1  -0.00000000  -0.00000000  0.50000000  1
  Nd  Nd1  1  -0.00000000  -0.00000000  0.00000000  1
  Nd  Nd2  1  0.52020048  0.06642899  0.25000000  1
  Nd  Nd3  1  0.93357101  0.47979952  0.75000000  1
  Nd  Nd4  1  0.47979952  0.93357101  0.75000000  1
  Nd  Nd5  1  0.06642899  0.52020048  0.25000000  1
  Sb  Sb6  1  0.50000000  0.50000000  0.50000000  1
  Sb  Sb7  1  0.50000000  0.50000000  0.00000000  1
  O  O8  1  0.44005362  0.18819400  0.53440156  1
  O  O9  1  0.81180600  0.55994638  0.46559844  1
  O  O10  1  0.44005362  0.18819400  0.96559844  1
  O  O11  1  0.81180600  0.55994638  0.03440156  1
  O  O12  1  0.55994638  0.81180600  0.46559844  1
  O  O13  1  0.18819400  0.44005362  0.53440156  1
  O  O14  1  0.55994638  0.81180600  0.03440156  1
  O  O15  1  0.18819400  0.44005362  0.96559844  1
  O  O16  1  0.15266265  0.88915084  0.25000000  1
  O  O17  1  0.11084916  0.84733735  0.75000000  1
  O  O18  1  0.84733735  0.11084916  0.75000000  1
  O  O19  1  0.88915084  0.15266265  0.25000000  1
  O  O20  1  0.42081813  0.42081813  0.25000000  1
  O  O21  1  0.57918187  0.57918187  0.75000000  1
