# generated using pymatgen
data_Mg4Mn9O13
_symmetry_space_group_name_H-M   'P 1'
_cell_length_a   3.13847033
_cell_length_b   3.13847033
_cell_length_c   33.47735788
_cell_angle_alpha   92.68669679
_cell_angle_beta   90.00000000
_cell_angle_gamma   120.00000000
_symmetry_Int_Tables_number   1
_chemical_formula_structural   Mg4Mn9O13
_chemical_formula_sum   'Mg4 Mn9 O13'
_cell_volume   285.15485226
_cell_formula_units_Z   1
loop_
 _symmetry_equiv_pos_site_id
 _symmetry_equiv_pos_as_xyz
  1  'x, y, z'
loop_
 _atom_site_type_symbol
 _atom_site_label
 _atom_site_symmetry_multiplicity
 _atom_site_fract_x
 _atom_site_fract_y
 _atom_site_fract_z
 _atom_site_occupancy
  Mg  Mg0  1  0.15406660  0.30813220  0.46219880  1
  Mg  Mg1  1  0.23122953  0.46245906  0.69368859  1
  Mg  Mg2  1  0.61561932  0.23123963  0.84685895  1
  Mg  Mg3  1  0.30675504  0.61351007  0.92026411  1
  Mn  Mn4  1  0.99869697  0.99739493  0.99609190  1
  Mn  Mn5  1  0.38441819  0.76883538  0.15325356  1
  Mn  Mn6  1  0.69165613  0.38331326  0.07496938  1
  Mn  Mn7  1  0.07705414  0.15410927  0.23116341  1
  Mn  Mn8  1  0.46240407  0.92480815  0.38721222  1
  Mn  Mn9  1  0.76969124  0.53938248  0.30907272  1
  Mn  Mn10  1  0.84587967  0.69175935  0.53763902  1
  Mn  Mn11  1  0.53906187  0.07812275  0.61718462  1
  Mn  Mn12  1  0.92345344  0.84690588  0.77035931  1
  O  O13  1  0.34521485  0.69042870  0.03564355  1
  O  O14  1  0.03808351  0.07616703  0.11424954  1
  O  O15  1  0.73075084  0.46150067  0.19225051  1
  O  O16  1  0.42336184  0.84672368  0.27008553  1
  O  O17  1  0.11602805  0.23205609  0.34808514  1
  O  O18  1  0.80893641  0.61787282  0.42680922  1
  O  O19  1  0.19243189  0.38486377  0.57729566  1
  O  O20  1  0.49921197  0.99842394  0.49763591  1
  O  O21  1  0.88585757  0.77171515  0.65757372  1
  O  O22  1  0.57661293  0.15322587  0.72983980  1
  O  O23  1  0.27029255  0.54058611  0.81087866  1
  O  O24  1  0.96121370  0.92242840  0.88364211  1
  O  O25  1  0.65201769  0.30403537  0.95605306  1
