# generated using pymatgen
data_Ba2Na7Ti16Bi7O48
_symmetry_space_group_name_H-M   'P 1'
_cell_length_a   5.54335400
_cell_length_b   5.65447368
_cell_length_c   36.46280893
_cell_angle_alpha   94.06249387
_cell_angle_beta   89.99948460
_cell_angle_gamma   119.34807806
_symmetry_Int_Tables_number   1
_chemical_formula_structural   Ba2Na7Ti16Bi7O48
_chemical_formula_sum   'Ba2 Na7 Ti16 Bi7 O48'
_cell_volume   992.93817546
_cell_formula_units_Z   1
loop_
 _symmetry_equiv_pos_site_id
 _symmetry_equiv_pos_as_xyz
  1  'x, y, z'
loop_
 _atom_site_type_symbol
 _atom_site_label
 _atom_site_symmetry_multiplicity
 _atom_site_fract_x
 _atom_site_fract_y
 _atom_site_fract_z
 _atom_site_occupancy
  Ba  Ba0  1  0.29428400  0.90206200  0.84324500  1
  Ba  Ba1  1  0.67261800  0.40234400  0.97153800  1
  Na  Na2  1  0.38123500  0.68390000  0.03819500  1
  Na  Na3  1  0.75847800  0.19532900  0.15993800  1
  Na  Na4  1  0.13250200  0.69548400  0.28465900  1
  Na  Na5  1  0.50764600  0.19593800  0.40952700  1
  Na  Na6  1  0.88279900  0.69632400  0.53444300  1
  Na  Na7  1  0.25827900  0.19692700  0.65835500  1
  Na  Na8  1  0.62908400  0.69790200  0.78031600  1
  Ti  Ti9  1  0.01919400  0.01767900  0.00737800  1
  Ti  Ti10  1  0.40811300  0.55242300  0.12841000  1
  Ti  Ti11  1  0.71132500  0.29370600  0.06553100  1
  Ti  Ti12  1  0.77747600  0.04937300  0.25252400  1
  Ti  Ti13  1  0.08131100  0.78218300  0.18998000  1
  Ti  Ti14  1  0.15268800  0.55091200  0.37723100  1
  Ti  Ti15  1  0.45779600  0.28608600  0.31403800  1
  Ti  Ti16  1  0.52803400  0.05091700  0.50199600  1
  Ti  Ti17  1  0.83285200  0.78645400  0.43882900  1
  Ti  Ti18  1  0.90391700  0.55298200  0.62666000  1
  Ti  Ti19  1  0.20757900  0.28678200  0.56372000  1
  Ti  Ti20  1  0.27201500  0.06236700  0.74958100  1
  Ti  Ti21  1  0.58475300  0.78978100  0.68729000  1
  Ti  Ti22  1  0.64109400  0.53480800  0.87205700  1
  Ti  Ti23  1  0.95799600  0.28869000  0.81209100  1
  Ti  Ti24  1  0.34162900  0.79436200  0.94110400  1
  Bi  Bi25  1  0.09542600  0.97918600  0.10018500  1
  Bi  Bi26  1  0.46042300  0.47479200  0.22376500  1
  Bi  Bi27  1  0.83602800  0.97646500  0.34836400  1
  Bi  Bi28  1  0.21130000  0.47669500  0.47329800  1
  Bi  Bi29  1  0.58598000  0.97813200  0.59738100  1
  Bi  Bi30  1  0.96649500  0.48155200  0.72344600  1
  Bi  Bi31  1  0.02006100  0.21581000  0.91337900  1
  O  O32  1  0.47687500  0.87669500  0.09640700  1
  O  O33  1  0.35973000  0.13390600  0.03082200  1
  O  O34  1  0.85792300  0.11859100  0.03712400  1
  O  O35  1  0.49482600  0.38619700  0.08935600  1
  O  O36  1  0.99889900  0.33025700  0.10164300  1
  O  O37  1  0.84402200  0.37285100  0.21957000  1
  O  O38  1  0.88106800  0.63111600  0.03410000  1
  O  O39  1  0.76055400  0.65274800  0.14996200  1
  O  O40  1  0.24193200  0.58931700  0.16525100  1
  O  O41  1  0.86759300  0.88358100  0.21210000  1
  O  O42  1  0.36888700  0.82704900  0.22643100  1
  O  O43  1  0.21868500  0.87295900  0.34416900  1
  O  O44  1  0.26924900  0.10852600  0.15551500  1
  O  O45  1  0.13185900  0.15280800  0.27374600  1
  O  O46  1  0.61716800  0.09172700  0.28938900  1
  O  O47  1  0.24200000  0.38337400  0.33657500  1
  O  O48  1  0.74345400  0.32820100  0.35079500  1
  O  O49  1  0.59374400  0.37319800  0.46908000  1
  O  O50  1  0.64274900  0.61156200  0.27988700  1
  O  O51  1  0.50641400  0.65284100  0.39861100  1
  O  O52  1  0.99212100  0.59237900  0.41421100  1
  O  O53  1  0.61720500  0.88369600  0.46147600  1
  O  O54  1  0.11837400  0.82857600  0.47566600  1
  O  O55  1  0.96914400  0.87477900  0.59346700  1
  O  O56  1  0.01680100  0.11167900  0.40460300  1
  O  O57  1  0.88142600  0.15300900  0.52346100  1
  O  O58  1  0.36780600  0.09243600  0.53907000  1
  O  O59  1  0.99365500  0.38565500  0.58612700  1
  O  O60  1  0.49406700  0.32953700  0.60040500  1
  O  O61  1  0.35199500  0.38191200  0.71583300  1
  O  O62  1  0.39231400  0.61214400  0.52940200  1
  O  O63  1  0.26122000  0.66096000  0.64745200  1
  O  O64  1  0.74724000  0.59854500  0.66329900  1
  O  O65  1  0.37132500  0.88296800  0.71164100  1
  O  O66  1  0.87097900  0.83126900  0.72389000  1
  O  O67  1  0.76952300  0.87856700  0.84329300  1
  O  O68  1  0.76998600  0.11819400  0.65378200  1
  O  O69  1  0.61212400  0.16122300  0.77551000  1
  O  O70  1  0.09045700  0.12025000  0.78172500  1
  O  O71  1  0.77657700  0.39786700  0.83892900  1
  O  O72  1  0.26411200  0.36930100  0.84647900  1
  O  O73  1  0.13224900  0.36091100  0.96743500  1
  O  O74  1  0.13593100  0.62842800  0.77872100  1
  O  O75  1  0.97166300  0.60434600  0.90420200  1
  O  O76  1  0.45042600  0.58554700  0.90809500  1
  O  O77  1  0.14954000  0.90068000  0.96491700  1
  O  O78  1  0.64087800  0.86725300  0.97336400  1
  O  O79  1  0.50257900  0.11798700  0.90634700  1
