# generated using pymatgen
data_Li3V(BO3)2
_symmetry_space_group_name_H-M   'P 1'
_cell_length_a   8.78804038
_cell_length_b   5.13484371
_cell_length_c   10.86829173
_cell_angle_alpha   62.71249133
_cell_angle_beta   90.00000000
_cell_angle_gamma   90.00000000
_symmetry_Int_Tables_number   1
_chemical_formula_structural   Li3V(BO3)2
_chemical_formula_sum   'Li12 V4 B8 O24'
_cell_volume   435.85712345
_cell_formula_units_Z   4
loop_
 _symmetry_equiv_pos_site_id
 _symmetry_equiv_pos_as_xyz
  1  'x, y, z'
loop_
 _atom_site_type_symbol
 _atom_site_label
 _atom_site_symmetry_multiplicity
 _atom_site_fract_x
 _atom_site_fract_y
 _atom_site_fract_z
 _atom_site_occupancy
  Li  Li0  1  0.97763847  0.51570974  0.32941443  1
  Li  Li1  1  0.66109671  0.45158834  0.37758993  1
  Li  Li2  1  0.98607172  0.92629133  0.89639865  1
  Li  Li3  1  0.16109671  0.54841166  0.12241007  1
  Li  Li4  1  0.48607172  0.07370867  0.60360135  1
  Li  Li5  1  0.47763847  0.48429026  0.17058557  1
  Li  Li6  1  0.52236153  0.51570974  0.82941443  1
  Li  Li7  1  0.51392828  0.92629133  0.39639865  1
  Li  Li8  1  0.83890329  0.45158834  0.87758993  1
  Li  Li9  1  0.01392828  0.07370867  0.10360135  1
  Li  Li10  1  0.33890329  0.54841166  0.62241007  1
  Li  Li11  1  0.02236153  0.48429026  0.67058557  1
  V  V12  1  0.32492963  0.97473827  0.87883344  1
  V  V13  1  0.82492963  0.02526173  0.62116656  1
  V  V14  1  0.17507037  0.97473827  0.37883344  1
  V  V15  1  0.67507037  0.02526173  0.12116656  1
  B  B16  1  0.32408882  0.45489840  0.37895000  1
  B  B17  1  0.66186454  0.96669103  0.86812656  1
  B  B18  1  0.82408882  0.54510160  0.12105000  1
  B  B19  1  0.16186454  0.03330897  0.63187344  1
  B  B20  1  0.83813546  0.96669103  0.36812656  1
  B  B21  1  0.17591118  0.45489840  0.87895000  1
  B  B22  1  0.33813546  0.03330897  0.13187344  1
  B  B23  1  0.67591118  0.54510160  0.62105000  1
  O  O24  1  0.33433461  0.81791124  0.08845210  1
  O  O25  1  0.66665246  0.30646149  0.59444508  1
  O  O26  1  0.94975360  0.70365874  0.11740316  1
  O  O27  1  0.02229581  0.14282831  0.64613251  1
  O  O28  1  0.29164046  0.13831755  0.66377408  1
  O  O29  1  0.68286045  0.62148697  0.15351209  1
  O  O30  1  0.18286045  0.37851303  0.34648791  1
  O  O31  1  0.79164046  0.86168245  0.83622592  1
  O  O32  1  0.52229581  0.85717169  0.85386749  1
  O  O33  1  0.44975360  0.29634126  0.38259684  1
  O  O34  1  0.83433461  0.18208876  0.41154790  1
  O  O35  1  0.16665246  0.69353851  0.90555492  1
  O  O36  1  0.83334754  0.30646149  0.09444508  1
  O  O37  1  0.16566539  0.81791124  0.58845210  1
  O  O38  1  0.55024640  0.70365874  0.61740316  1
  O  O39  1  0.47770419  0.14282831  0.14613251  1
  O  O40  1  0.20835954  0.13831755  0.16377408  1
  O  O41  1  0.81713955  0.62148697  0.65351209  1
  O  O42  1  0.31713955  0.37851303  0.84648791  1
  O  O43  1  0.70835954  0.86168245  0.33622592  1
  O  O44  1  0.97770419  0.85717169  0.35386749  1
  O  O45  1  0.05024640  0.29634126  0.88259684  1
  O  O46  1  0.33334754  0.69353851  0.40555492  1
  O  O47  1  0.66566539  0.18208876  0.91154790  1
