# generated using pymatgen
data_O2
_symmetry_space_group_name_H-M   'P 1'
_cell_length_a   5.16849400
_cell_length_b   5.16849400
_cell_length_c   7.54912100
_cell_angle_alpha   90.00000000
_cell_angle_beta   90.00000000
_cell_angle_gamma   90.00000000
_symmetry_Int_Tables_number   1
_chemical_formula_structural   O2
_chemical_formula_sum   O12
_cell_volume   201.66216220
_cell_formula_units_Z   6
loop_
 _symmetry_equiv_pos_site_id
 _symmetry_equiv_pos_as_xyz
  1  'x, y, z'
loop_
 _atom_site_type_symbol
 _atom_site_label
 _atom_site_symmetry_multiplicity
 _atom_site_fract_x
 _atom_site_fract_y
 _atom_site_fract_z
 _atom_site_occupancy
  O  O0  1  0.92949100  0.26896300  0.50084200  1
  O  O1  1  0.07050900  0.73103700  0.00084200  1
  O  O2  1  0.73103700  0.92949100  0.75084200  1
  O  O3  1  0.26896300  0.07050900  0.25084200  1
  O  O4  1  0.76859400  0.42970400  0.99920200  1
  O  O5  1  0.23140600  0.57029600  0.49920200  1
  O  O6  1  0.57029600  0.76859400  0.24920200  1
  O  O7  1  0.42970400  0.23140600  0.74920200  1
  O  O8  1  0.51204000  0.00959400  0.24994300  1
  O  O9  1  0.48796000  0.99040600  0.74994300  1
  O  O10  1  0.99040600  0.51204000  0.49994300  1
  O  O11  1  0.00959400  0.48796000  0.99994300  1
