# generated using pymatgen
data_Na8SnO6
_symmetry_space_group_name_H-M   'P 1'
_cell_length_a   6.39008444
_cell_length_b   6.39008470
_cell_length_c   12.66609357
_cell_angle_alpha   89.99994120
_cell_angle_beta   89.99995374
_cell_angle_gamma   120.00540463
_symmetry_Int_Tables_number   1
_chemical_formula_structural   Na8SnO6
_chemical_formula_sum   'Na16 Sn2 O12'
_cell_volume   447.88124923
_cell_formula_units_Z   2
loop_
 _symmetry_equiv_pos_site_id
 _symmetry_equiv_pos_as_xyz
  1  'x, y, z'
loop_
 _atom_site_type_symbol
 _atom_site_label
 _atom_site_symmetry_multiplicity
 _atom_site_fract_x
 _atom_site_fract_y
 _atom_site_fract_z
 _atom_site_occupancy
  Na  Na0  1  -0.00003717  0.69879579  0.76859632  1
  Na  Na1  1  -0.00004272  0.60146445  0.12562594  1
  Na  Na2  1  0.00004155  0.39849889  0.62563784  1
  Na  Na3  1  0.00003669  0.30123262  0.26864672  1
  Na  Na4  1  0.33338518  0.66671769  0.40942517  1
  Na  Na5  1  0.33328458  0.66661671  0.90926351  1
  Na  Na6  1  0.30116805  0.30116801  0.76860209  1
  Na  Na7  1  0.39848610  0.39848610  0.12562712  1
  Na  Na8  1  0.60154858  0.60154856  0.62563822  1
  Na  Na9  1  0.30123264  0.00003668  0.26864669  1
  Na  Na10  1  0.69880309  0.69880312  0.26865362  1
  Na  Na11  1  0.39849881  0.00004154  0.62563785  1
  Na  Na12  1  0.66661664  0.33328458  0.90926354  1
  Na  Na13  1  0.66671764  0.33338512  0.40942517  1
  Na  Na14  1  0.60146440  -0.00004271  0.12562593  1
  Na  Na15  1  0.69879575  -0.00003718  0.76859633  1
  Sn  Sn16  1  -0.00000474  -0.00000479  0.99648806  1
  Sn  Sn17  1  0.00000264  0.00000244  0.49665000  1
  O  O18  1  -0.00000902  0.70575074  0.95090713  1
  O  O19  1  0.00001127  0.29420618  0.45100529  1
  O  O20  1  0.33333425  0.66666691  0.21994471  1
  O  O21  1  0.00000613  0.00000618  0.15488125  1
  O  O22  1  -0.00000647  -0.00000652  0.65499141  1
  O  O23  1  0.33333286  0.66666557  0.71988961  1
  O  O24  1  0.29426212  0.29426212  0.95090597  1
  O  O25  1  0.29420633  0.00001125  0.45100532  1
  O  O26  1  0.70578184  0.70578189  0.45100469  1
  O  O27  1  0.66666548  0.33333300  0.71988962  1
  O  O28  1  0.66666683  0.33333418  0.21994472  1
  O  O29  1  0.70575066  -0.00000911  0.95090714  1
