# generated using pymatgen
data_Cs3YO3
_symmetry_space_group_name_H-M   'P 1'
_cell_length_a   7.51301027
_cell_length_b   7.51301027
_cell_length_c   7.61916197
_cell_angle_alpha   84.26014637
_cell_angle_beta   84.26014637
_cell_angle_gamma   116.23140511
_symmetry_Int_Tables_number   1
_chemical_formula_structural   Cs3YO3
_chemical_formula_sum   'Cs6 Y2 O6'
_cell_volume   378.79796133
_cell_formula_units_Z   2
loop_
 _symmetry_equiv_pos_site_id
 _symmetry_equiv_pos_as_xyz
  1  'x, y, z'
loop_
 _atom_site_type_symbol
 _atom_site_label
 _atom_site_symmetry_multiplicity
 _atom_site_fract_x
 _atom_site_fract_y
 _atom_site_fract_z
 _atom_site_occupancy
  Cs  Cs0  1  0.64442018  0.64442018  0.64701631  1
  Cs  Cs1  1  0.79014470  0.20985530  0.50000000  1
  Cs  Cs2  1  0.20985530  0.79014470  0.50000000  1
  Cs  Cs3  1  0.73732745  0.26267255  -0.00000000  1
  Cs  Cs4  1  0.26267255  0.73732745  -0.00000000  1
  Cs  Cs5  1  0.35557982  0.35557982  0.35298369  1
  Y  Y6  1  0.82681578  0.82681578  0.15121899  1
  Y  Y7  1  0.17318422  0.17318422  0.84878101  1
  O  O8  1  0.89697791  0.89697791  0.85864805  1
  O  O9  1  0.83472193  0.56313567  0.26664801  1
  O  O10  1  0.56313567  0.83472193  0.26664801  1
  O  O11  1  0.43686433  0.16527807  0.73335199  1
  O  O12  1  0.16527807  0.43686433  0.73335199  1
  O  O13  1  0.10302209  0.10302209  0.14135195  1
