# generated using pymatgen
data_NiP2H2O7
_symmetry_space_group_name_H-M   'P 1'
_cell_length_a   8.78098294
_cell_length_b   12.73982667
_cell_length_c   9.55267142
_cell_angle_alpha   89.99986180
_cell_angle_beta   106.46571479
_cell_angle_gamma   89.99999382
_symmetry_Int_Tables_number   1
_chemical_formula_structural   NiP2H2O7
_chemical_formula_sum   'Ni8 P16 H16 O56'
_cell_volume   1024.81471139
_cell_formula_units_Z   8
loop_
 _symmetry_equiv_pos_site_id
 _symmetry_equiv_pos_as_xyz
  1  'x, y, z'
loop_
 _atom_site_type_symbol
 _atom_site_label
 _atom_site_symmetry_multiplicity
 _atom_site_fract_x
 _atom_site_fract_y
 _atom_site_fract_z
 _atom_site_occupancy
  Ni  Ni0  1  0.74884271  0.25355825  0.74876863  1
  Ni  Ni1  1  0.25120287  0.75353690  0.75127207  1
  Ni  Ni2  1  0.25120258  0.74646242  0.25127231  1
  Ni  Ni3  1  0.74884221  0.24644251  0.24876925  1
  Ni  Ni4  1  0.75090272  0.40718999  0.00154563  1
  Ni  Ni5  1  0.24910359  0.90722298  0.49847189  1
  Ni  Ni6  1  0.24910215  0.59277832  0.99847099  1
  Ni  Ni7  1  0.75090145  0.09280910  0.50154430  1
  P  P8  1  0.53333698  0.04651294  0.71861286  1
  P  P9  1  0.46665993  0.54650468  0.78136943  1
  P  P10  1  0.46665994  0.95349546  0.28136966  1
  P  P11  1  0.53333597  0.45348734  0.21861252  1
  P  P12  1  0.99363232  0.29357409  0.56408539  1
  P  P13  1  0.00636292  0.79358272  0.93592224  1
  P  P14  1  0.00636351  0.70641812  0.43592276  1
  P  P15  1  0.99363286  0.20642553  0.06408558  1
  P  P16  1  0.03999501  0.53832772  0.22156271  1
  P  P17  1  0.96001358  0.03833027  0.27842168  1
  P  P18  1  0.96001314  0.46166973  0.77842143  1
  P  P19  1  0.03999504  0.96167264  0.72156232  1
  P  P20  1  0.50122108  0.21371591  0.93205999  1
  P  P21  1  0.49877310  0.71372071  0.56795415  1
  P  P22  1  0.49877182  0.78628049  0.06795358  1
  P  P23  1  0.50121986  0.28628334  0.43205870  1
  H  H24  1  0.04811563  0.38995684  0.33494219  1
  H  H25  1  0.95188245  0.88995897  0.16504710  1
  H  H26  1  0.95188064  0.61004211  0.66504711  1
  H  H27  1  0.04811316  0.11004266  0.83494309  1
  H  H28  1  0.54386445  0.90423994  0.84797613  1
  H  H29  1  0.45608454  0.40423678  0.65200522  1
  H  H30  1  0.45608389  0.09576148  0.15200274  1
  H  H31  1  0.54386386  0.59576165  0.34797355  1
  H  H32  1  0.22447334  0.25032784  0.70920329  1
  H  H33  1  0.77550597  0.75036568  0.79079019  1
  H  H34  1  0.77550837  0.74963922  0.29078891  1
  H  H35  1  0.22447811  0.24966247  0.20920335  1
  H  H36  1  0.28079987  0.27153768  0.97631728  1
  H  H37  1  0.71921860  0.77148178  0.52368962  1
  H  H38  1  0.71921930  0.72852145  0.02368877  1
  H  H39  1  0.28080129  0.22845551  0.47631449  1
  O  O40  1  0.16368076  0.60449255  0.18055816  1
  O  O41  1  0.83635354  0.10450868  0.31944784  1
  O  O42  1  0.83635347  0.39549047  0.81944677  1
  O  O43  1  0.16368249  0.89550912  0.68055809  1
  O  O44  1  0.65962581  0.11138714  0.67936193  1
  O  O45  1  0.34041844  0.61140365  0.82066732  1
  O  O46  1  0.34041466  0.88859804  0.32066414  1
  O  O47  1  0.65962117  0.38861165  0.17935813  1
  O  O48  1  0.61268631  0.28590237  0.88418268  1
  O  O49  1  0.38731706  0.78588887  0.61586296  1
  O  O50  1  0.38731657  0.71411023  0.11586102  1
  O  O51  1  0.61268689  0.21409890  0.38418119  1
  O  O52  1  0.89354882  0.51993632  0.10234425  1
  O  O53  1  0.10646974  0.01991816  0.39763258  1
  O  O54  1  0.10646950  0.48008252  0.89763076  1
  O  O55  1  0.89355042  0.98006417  0.60234125  1
  O  O56  1  0.55902910  0.17838223  0.08782503  1
  O  O57  1  0.44094586  0.67838969  0.41218744  1
  O  O58  1  0.44094485  0.82161169  0.91218679  1
  O  O59  1  0.55902686  0.32161550  0.58782411  1
  O  O60  1  0.94284311  0.31451304  0.40356091  1
  O  O61  1  0.05713275  0.81452434  0.09644769  1
  O  O62  1  0.05713177  0.68547769  0.59644923  1
  O  O63  1  0.94284309  0.18548658  0.90356224  1
  O  O64  1  0.61555456  0.95475662  0.81718494  1
  O  O65  1  0.38439495  0.45476694  0.68278117  1
  O  O66  1  0.38439503  0.04523230  0.18277941  1
  O  O67  1  0.61555421  0.54524401  0.31718324  1
  O  O68  1  0.46310672  0.11852154  0.82449416  1
  O  O69  1  0.53692272  0.61851197  0.67550511  1
  O  O70  1  0.53692009  0.88148778  0.17550450  1
  O  O71  1  0.46310386  0.38147905  0.32449415  1
  O  O72  1  0.39633114  0.01855090  0.59500733  1
  O  O73  1  0.60366674  0.51849342  0.90493956  1
  O  O74  1  0.60366552  0.98150773  0.40494049  1
  O  O75  1  0.39632859  0.48144937  0.09500866  1
  O  O76  1  0.88589203  0.21984295  0.61449312  1
  O  O77  1  0.11410225  0.71983231  0.88553614  1
  O  O78  1  0.11410359  0.78016741  0.38553670  1
  O  O79  1  0.88589399  0.28015820  0.11449374  1
  O  O80  1  0.33276563  0.26629817  0.89767878  1
  O  O81  1  0.66721499  0.76631962  0.60231192  1
  O  O82  1  0.66721408  0.73368183  0.10231006  1
  O  O83  1  0.33276566  0.23369931  0.39767547  1
  O  O84  1  0.12037212  0.43851744  0.30094246  1
  O  O85  1  0.87962567  0.93852298  0.19905062  1
  O  O86  1  0.87962367  0.56147640  0.69904764  1
  O  O87  1  0.12036971  0.06148335  0.80094096  1
  O  O88  1  0.99127399  0.60112074  0.34901500  1
  O  O89  1  0.00876101  0.10112022  0.15098819  1
  O  O90  1  0.00875900  0.39887868  0.65098781  1
  O  O91  1  0.99126957  0.89887950  0.84901241  1
  O  O92  1  0.16904016  0.25110569  0.60367788  1
  O  O93  1  0.83094704  0.75112245  0.89631598  1
  O  O94  1  0.83094773  0.74887901  0.39631518  1
  O  O95  1  0.16904212  0.24889127  0.10367859  1
