# generated using pymatgen
data_In5(BiS4)3
_symmetry_space_group_name_H-M   'P 1'
_cell_length_a   16.87289000
_cell_length_b   16.87289000
_cell_length_c   14.56597544
_cell_angle_alpha   89.42697089
_cell_angle_beta   89.42697089
_cell_angle_gamma   13.34558676
_symmetry_Int_Tables_number   1
_chemical_formula_structural   In5(BiS4)3
_chemical_formula_sum   'In10 Bi6 S24'
_cell_volume   957.14426215
_cell_formula_units_Z   2
loop_
 _symmetry_equiv_pos_site_id
 _symmetry_equiv_pos_as_xyz
  1  'x, y, z'
loop_
 _atom_site_type_symbol
 _atom_site_label
 _atom_site_symmetry_multiplicity
 _atom_site_fract_x
 _atom_site_fract_y
 _atom_site_fract_z
 _atom_site_occupancy
  In  In0  1  0.99612800  0.00252100  0.00295300  1
  In  In1  1  0.99791100  0.00341600  0.50296900  1
  In  In2  1  0.78598300  0.77773900  0.41697000  1
  In  In3  1  0.20573800  0.22603500  0.58267600  1
  In  In4  1  0.59659500  0.59917500  0.50017300  1
  In  In5  1  0.40383900  0.39984700  0.49329600  1
  In  In6  1  0.31392200  0.33905600  0.21917600  1
  In  In7  1  0.66864100  0.67561700  0.78174500  1
  In  In8  1  0.05884300  0.08433500  0.27823100  1
  In  In9  1  0.93444000  0.92496800  0.72085500  1
  Bi  Bi10  1  0.85502000  0.87648900  0.98446700  1
  Bi  Bi11  1  0.13410900  0.13644900  0.01799800  1
  Bi  Bi12  1  0.67782600  0.68063800  0.26464300  1
  Bi  Bi13  1  0.31816800  0.32346400  0.73518000  1
  Bi  Bi14  1  0.45685300  0.43895400  0.20819500  1
  Bi  Bi15  1  0.54222900  0.56159200  0.78953600  1
  S  S16  1  0.99911000  0.01223800  0.17878900  1
  S  S17  1  0.99312100  0.99198800  0.81782000  1
  S  S18  1  0.92932000  0.94644700  0.40395900  1
  S  S19  1  0.06629900  0.05633700  0.59602800  1
  S  S20  1  0.87300800  0.89776100  0.18020600  1
  S  S21  1  0.12697100  0.10189100  0.81973900  1
  S  S22  1  0.76604800  0.79034200  0.23988000  1
  S  S23  1  0.23460200  0.21004400  0.76167400  1
  S  S24  1  0.59814200  0.61223400  0.18992000  1
  S  S25  1  0.39357300  0.39603200  0.80952100  1
  S  S26  1  0.53992300  0.52982400  0.39671900  1
  S  S27  1  0.46951200  0.45936900  0.60420000  1
  S  S28  1  0.43450700  0.45823700  0.02657200  1
  S  S29  1  0.56576800  0.54088300  0.97350700  1
  S  S30  1  0.33559100  0.34334400  0.39800200  1
  S  S31  1  0.65684200  0.66919900  0.60006000  1
  S  S32  1  0.20181900  0.18806900  0.14501200  1
  S  S33  1  0.80179100  0.80560500  0.84972100  1
  S  S34  1  0.12931100  0.12663200  0.39739800  1
  S  S35  1  0.86756100  0.87944000  0.60746100  1
  S  S36  1  0.21988700  0.23653600  0.41138600  1
  S  S37  1  0.76016400  0.78468000  0.59106200  1
  S  S38  1  0.30977100  0.32605000  0.03918600  1
  S  S39  1  0.67394900  0.68965000  0.96042600  1
