# generated using pymatgen
data_Li8VCo3(PO4)6
_symmetry_space_group_name_H-M   'P 1'
_cell_length_a   8.93200810
_cell_length_b   8.94123569
_cell_length_c   8.62753256
_cell_angle_alpha   58.74488681
_cell_angle_beta   58.84277996
_cell_angle_gamma   60.06137806
_symmetry_Int_Tables_number   1
_chemical_formula_structural   Li8VCo3(PO4)6
_chemical_formula_sum   'Li8 V1 Co3 P6 O24'
_cell_volume   478.35225764
_cell_formula_units_Z   1
loop_
 _symmetry_equiv_pos_site_id
 _symmetry_equiv_pos_as_xyz
  1  'x, y, z'
loop_
 _atom_site_type_symbol
 _atom_site_label
 _atom_site_symmetry_multiplicity
 _atom_site_fract_x
 _atom_site_fract_y
 _atom_site_fract_z
 _atom_site_occupancy
  Li  Li0  1  0.98262500  0.98293200  0.05232900  1
  Li  Li1  1  0.29281600  0.83561300  0.21716700  1
  Li  Li2  1  0.83634000  0.65540300  0.21730400  1
  Li  Li3  1  0.65470900  0.29344600  0.21627000  1
  Li  Li4  1  0.50850400  0.50771100  0.47602100  1
  Li  Li5  1  0.33181500  0.71601700  0.80307300  1
  Li  Li6  1  0.14778200  0.32885200  0.80417900  1
  Li  Li7  1  0.71615100  0.14964000  0.80249100  1
  V  V8  1  0.14625300  0.14555400  0.56289700  1
  Co  Co9  1  0.65257200  0.64949400  0.04760400  1
  Co  Co10  1  0.85205900  0.85231900  0.44351100  1
  Co  Co11  1  0.35397100  0.35454900  0.93726300  1
  P  P12  1  0.54505600  0.95398600  0.24695000  1
  P  P13  1  0.25375700  0.54537800  0.24747300  1
  P  P14  1  0.95324500  0.25326300  0.24772400  1
  P  P15  1  0.04789100  0.75779900  0.74503200  1
  P  P16  1  0.75766200  0.44935900  0.74418700  1
  P  P17  1  0.44893700  0.04881100  0.74570200  1
  O  O18  1  0.74151600  0.90774600  0.23842600  1
  O  O19  1  0.53127100  0.77515400  0.26950100  1
  O  O20  1  0.11194800  0.74113500  0.23937000  1
  O  O21  1  0.30484800  0.52466400  0.05883800  1
  O  O22  1  0.42408700  0.53193200  0.26946800  1
  O  O23  1  0.11246600  0.30296100  0.05875900  1
  O  O24  1  0.01085800  0.81706200  0.56621600  1
  O  O25  1  0.77494000  0.42410600  0.26872000  1
  O  O26  1  0.08674800  0.91206100  0.74927200  1
  O  O27  1  0.52465500  0.11256400  0.05829800  1
  O  O28  1  0.81938000  0.60447500  0.56386000  1
  O  O29  1  0.18070600  0.38455500  0.42533500  1
  O  O30  1  0.46266700  0.88317200  0.93555500  1
  O  O31  1  0.90648300  0.11195300  0.23945800  1
  O  O32  1  0.23214300  0.59554800  0.74199200  1
  O  O33  1  0.88257600  0.71971100  0.93614500  1
  O  O34  1  0.00833700  0.18000100  0.42580400  1
  O  O35  1  0.59525000  0.43145800  0.73997000  1
  O  O36  1  0.38566100  0.00956300  0.42490900  1
  O  O37  1  0.71914900  0.46326900  0.93427400  1
  O  O38  1  0.91208400  0.25168100  0.75053600  1
  O  O39  1  0.43127400  0.23362500  0.74043000  1
  O  O40  1  0.60449700  0.01213600  0.56605600  1
  O  O41  1  0.25133000  0.08636100  0.75057400  1
