# generated using pymatgen
data_B5H7
_symmetry_space_group_name_H-M   'P 1'
_cell_length_a   5.68608996
_cell_length_b   12.57715069
_cell_length_c   14.47147355
_cell_angle_alpha   54.91100526
_cell_angle_beta   90.00000153
_cell_angle_gamma   90.00000751
_symmetry_Int_Tables_number   1
_chemical_formula_structural   B5H7
_chemical_formula_sum   'B40 H56'
_cell_volume   846.83762584
_cell_formula_units_Z   8
loop_
 _symmetry_equiv_pos_site_id
 _symmetry_equiv_pos_as_xyz
  1  'x, y, z'
loop_
 _atom_site_type_symbol
 _atom_site_label
 _atom_site_symmetry_multiplicity
 _atom_site_fract_x
 _atom_site_fract_y
 _atom_site_fract_z
 _atom_site_occupancy
  B  B0  1  0.00044661  0.66092788  0.20244408  1
  B  B1  1  -0.00044692  0.33907218  0.79755574  1
  B  B2  1  -0.00044691  0.66092776  0.70244432  1
  B  B3  1  0.00044683  0.33907220  0.29755589  1
  B  B4  1  0.49518186  0.83928958  0.36429277  1
  B  B5  1  0.50481814  0.16071048  0.63570719  1
  B  B6  1  0.50481809  0.83928953  0.86429278  1
  B  B7  1  0.49518191  0.16071042  0.13570724  1
  B  B8  1  0.00117350  0.40120480  0.39591356  1
  B  B9  1  -0.00117439  0.59879544  0.60408612  1
  B  B10  1  -0.00117439  0.40120452  0.89591392  1
  B  B11  1  0.00117342  0.59879530  0.10408645  1
  B  B12  1  0.49562819  0.09993147  0.29575270  1
  B  B13  1  0.50437236  0.90006854  0.70424731  1
  B  B14  1  0.50437233  0.09993146  0.79575267  1
  B  B15  1  0.49562813  0.90006855  0.20424730  1
  B  B16  1  0.17121506  0.54705463  0.32400673  1
  B  B17  1  0.82878497  0.45294549  0.67599321  1
  B  B18  1  0.82878503  0.54705443  0.82400685  1
  B  B19  1  0.17121512  0.45294558  0.17599327  1
  B  B20  1  0.32492031  0.95430726  0.37061721  1
  B  B21  1  0.67507937  0.04569318  0.62938248  1
  B  B22  1  0.67507940  0.95430685  0.87061751  1
  B  B23  1  0.32492029  0.04569276  0.12938282  1
  B  B24  1  0.23636473  0.41844660  0.31061638  1
  B  B25  1  0.76363509  0.58155388  0.68938347  1
  B  B26  1  0.76363517  0.41844606  0.81061659  1
  B  B27  1  0.23636491  0.58155370  0.18938352  1
  B  B28  1  0.25973913  0.08184229  0.22847421  1
  B  B29  1  0.74026120  0.91815760  0.77152573  1
  B  B30  1  0.74026119  0.08184245  0.72847424  1
  B  B31  1  0.25973904  0.91815772  0.27152581  1
  B  B32  1  0.87311719  0.55626995  0.33879613  1
  B  B33  1  0.12688301  0.44373031  0.66120374  1
  B  B34  1  0.12688305  0.55626968  0.83879625  1
  B  B35  1  0.87311743  0.44373007  0.16120386  1
  B  B36  1  0.62295951  0.94502897  0.39483046  1
  B  B37  1  0.37703966  0.05497112  0.60516982  1
  B  B38  1  0.37703965  0.94502889  0.89483015  1
  B  B39  1  0.62295948  0.05497102  0.10516956  1
  H  H40  1  0.99216985  0.77490291  0.15640581  1
  H  H41  1  0.00783081  0.22509688  0.84359421  1
  H  H42  1  0.00783081  0.77490310  0.65640585  1
  H  H43  1  0.99217059  0.22509721  0.34359420  1
  H  H44  1  0.50237501  0.72546351  0.43290283  1
  H  H45  1  0.49762418  0.27453703  0.56709788  1
  H  H46  1  0.49762412  0.72546299  0.93290207  1
  H  H47  1  0.50237513  0.27453651  0.06709718  1
  H  H48  1  0.30639653  0.57581401  0.36858706  1
  H  H49  1  0.69360398  0.42418582  0.63141291  1
  H  H50  1  0.69360394  0.57581407  0.86858717  1
  H  H51  1  0.30639719  0.42418645  0.13141292  1
  H  H52  1  0.18980046  0.92660244  0.44369469  1
  H  H53  1  0.81019860  0.07339746  0.55630499  1
  H  H54  1  0.81019856  0.92660257  0.94369497  1
  H  H55  1  0.18980038  0.07339755  0.05630536  1
  H  H56  1  0.76608988  0.58851274  0.38884328  1
  H  H57  1  0.23391047  0.41148684  0.61115718  1
  H  H58  1  0.23391062  0.58851315  0.88884286  1
  H  H59  1  0.76609036  0.41148716  0.11115670  1
  H  H60  1  0.72931119  0.91409032  0.47691336  1
  H  H61  1  0.27068632  0.08590918  0.52308743  1
  H  H62  1  0.27068633  0.91409079  0.97691255  1
  H  H63  1  0.72931113  0.08590971  0.02308664  1
  H  H64  1  0.99405019  0.32082688  0.49458295  1
  H  H65  1  0.00595091  0.67917427  0.50541658  1
  H  H66  1  0.00595094  0.32082572  0.99458349  1
  H  H67  1  0.99405018  0.67917324  0.00541700  1
  H  H68  1  0.50273029  0.18087607  0.31343106  1
  H  H69  1  0.49726888  0.81912354  0.68656940  1
  H  H70  1  0.49726884  0.18087648  0.81343055  1
  H  H71  1  0.50273008  0.81912390  0.18656900  1
  H  H72  1  0.40025251  0.35028207  0.36104167  1
  H  H73  1  0.59974782  0.64971793  0.63895848  1
  H  H74  1  0.59974788  0.35028193  0.86104160  1
  H  H75  1  0.40025263  0.64971795  0.13895818  1
  H  H76  1  0.09619873  0.15041077  0.21028855  1
  H  H77  1  0.90380078  0.84958920  0.78971089  1
  H  H78  1  0.90380072  0.15041087  0.71028909  1
  H  H79  1  0.09619870  0.84958926  0.28971145  1
  H  H80  1  0.78234620  0.62085192  0.23441895  1
  H  H81  1  0.21765248  0.37914857  0.76558133  1
  H  H82  1  0.21765253  0.62085140  0.73441871  1
  H  H83  1  0.78234629  0.37914805  0.26558104  1
  H  H84  1  0.71363099  0.87871358  0.35665512  1
  H  H85  1  0.28636947  0.12128592  0.64334586  1
  H  H86  1  0.28636947  0.87871406  0.85665413  1
  H  H87  1  0.71363099  0.12128644  0.14334486  1
  H  H88  1  0.78255976  0.44267914  0.36754074  1
  H  H89  1  0.21743943  0.55732109  0.63245971  1
  H  H90  1  0.21743948  0.44267890  0.86754032  1
  H  H91  1  0.78255974  0.55732087  0.13245923  1
  H  H92  1  0.71386110  0.05787014  0.30910220  1
  H  H93  1  0.28613941  0.94212972  0.69089860  1
  H  H94  1  0.28613944  0.05787025  0.80910136  1
  H  H95  1  0.71386097  0.94212986  0.19089780  1
