# generated using pymatgen
data_NbVO4
_symmetry_space_group_name_H-M   'P 1'
_cell_length_a   4.59267652
_cell_length_b   4.87993303
_cell_length_c   11.70238024
_cell_angle_alpha   90.00035750
_cell_angle_beta   90.02925526
_cell_angle_gamma   90.00065221
_symmetry_Int_Tables_number   1
_chemical_formula_structural   NbVO4
_chemical_formula_sum   'Nb4 V4 O16'
_cell_volume   262.27317155
_cell_formula_units_Z   4
loop_
 _symmetry_equiv_pos_site_id
 _symmetry_equiv_pos_as_xyz
  1  'x, y, z'
loop_
 _atom_site_type_symbol
 _atom_site_label
 _atom_site_symmetry_multiplicity
 _atom_site_fract_x
 _atom_site_fract_y
 _atom_site_fract_z
 _atom_site_occupancy
  Nb  Nb0  1  0.49862512  0.25434057  0.67411255  1
  Nb  Nb1  1  -0.00138473  0.24565285  0.17411721  1
  Nb  Nb2  1  -0.00157269  0.74748925  0.82599344  1
  Nb  Nb3  1  0.49840580  0.75251016  0.32596437  1
  V  V4  1  -0.00149112  0.25224210  0.43794117  1
  V  V5  1  0.49838768  0.74704855  0.06207553  1
  V  V6  1  0.49850484  0.24777165  0.93799158  1
  V  V7  1  -0.00161955  0.75295372  0.56205226  1
  O  O8  1  0.27565835  0.07476524  0.81124656  1
  O  O9  1  0.77560341  0.42519738  0.31121312  1
  O  O10  1  0.72995586  0.42466247  0.80999029  1
  O  O11  1  0.77549447  0.92550064  0.68871356  1
  O  O12  1  0.23002157  0.07539141  0.30996529  1
  O  O13  1  0.27545058  0.57450058  0.18872094  1
  O  O14  1  0.22970905  0.57575556  0.68997796  1
  O  O15  1  0.72978280  0.92420241  0.18997357  1
  O  O16  1  0.25415913  0.57722621  0.93714022  1
  O  O17  1  0.75428722  0.92277350  0.43705747  1
  O  O18  1  0.74329072  0.91782931  0.93930499  1
  O  O19  1  0.75433153  0.42276248  0.56271355  1
  O  O20  1  0.24318848  0.58219643  0.43923292  1
  O  O21  1  0.25440099  0.07720959  0.06277847  1
  O  O22  1  0.24342127  0.08214175  0.56083494  1
  O  O23  1  0.74338627  0.41787619  0.06089003  1
