# generated using pymatgen
data_ErTa3O9
_symmetry_space_group_name_H-M   'P 1'
_cell_length_a   7.42579609
_cell_length_b   5.21833894
_cell_length_c   8.21981723
_cell_angle_alpha   87.53946585
_cell_angle_beta   90.00000000
_cell_angle_gamma   90.00000000
_symmetry_Int_Tables_number   1
_chemical_formula_structural   ErTa3O9
_chemical_formula_sum   'Er2 Ta6 O18'
_cell_volume   318.22688900
_cell_formula_units_Z   2
loop_
 _symmetry_equiv_pos_site_id
 _symmetry_equiv_pos_as_xyz
  1  'x, y, z'
loop_
 _atom_site_type_symbol
 _atom_site_label
 _atom_site_symmetry_multiplicity
 _atom_site_fract_x
 _atom_site_fract_y
 _atom_site_fract_z
 _atom_site_occupancy
  Er  Er0  1  0.25000000  0.96712829  0.43482641  1
  Er  Er1  1  0.75000000  0.03287171  0.56517359  1
  Ta  Ta2  1  0.00000000  -0.00000000  -0.00000000  1
  Ta  Ta3  1  0.50000000  -0.00000000  -0.00000000  1
  Ta  Ta4  1  0.00788203  0.52836423  0.69711364  1
  Ta  Ta5  1  0.49211797  0.52836423  0.69711364  1
  Ta  Ta6  1  0.99211797  0.47163577  0.30288636  1
  Ta  Ta7  1  0.50788203  0.47163577  0.30288636  1
  O  O8  1  0.25000000  0.89635219  0.97712311  1
  O  O9  1  0.93345752  0.85555810  0.78289244  1
  O  O10  1  0.56654248  0.85555810  0.78289244  1
  O  O11  1  0.95500586  0.74375754  0.46672463  1
  O  O12  1  0.54499414  0.74375754  0.46672463  1
  O  O13  1  0.25000000  0.67128016  0.65185467  1
  O  O14  1  0.94206031  0.67148905  0.11835572  1
  O  O15  1  0.55793969  0.67148905  0.11835572  1
  O  O16  1  0.25000000  0.58124743  0.31328212  1
  O  O17  1  0.75000000  0.41875257  0.68671788  1
  O  O18  1  0.05793969  0.32851095  0.88164428  1
  O  O19  1  0.44206031  0.32851095  0.88164428  1
  O  O20  1  0.75000000  0.32871984  0.34814533  1
  O  O21  1  0.04499414  0.25624246  0.53327537  1
  O  O22  1  0.45500586  0.25624246  0.53327537  1
  O  O23  1  0.06654248  0.14444190  0.21710756  1
  O  O24  1  0.43345752  0.14444190  0.21710756  1
  O  O25  1  0.75000000  0.10364781  0.02287689  1
