# generated using pymatgen
data_Mn3(PO4)2
_symmetry_space_group_name_H-M   'P 1'
_cell_length_a   5.20130259
_cell_length_b   8.63458213
_cell_length_c   7.72001783
_cell_angle_alpha   89.99982200
_cell_angle_beta   86.74890475
_cell_angle_gamma   89.99868353
_symmetry_Int_Tables_number   1
_chemical_formula_structural   Mn3(PO4)2
_chemical_formula_sum   'Mn6 P4 O16'
_cell_volume   346.15628795
_cell_formula_units_Z   2
loop_
 _symmetry_equiv_pos_site_id
 _symmetry_equiv_pos_as_xyz
  1  'x, y, z'
loop_
 _atom_site_type_symbol
 _atom_site_label
 _atom_site_symmetry_multiplicity
 _atom_site_fract_x
 _atom_site_fract_y
 _atom_site_fract_z
 _atom_site_occupancy
  Mn  Mn0  1  0.49994175  0.50001898  0.50005085  1
  Mn  Mn1  1  0.41348023  0.14225124  0.62154501  1
  Mn  Mn2  1  0.58655159  0.85775301  0.37843911  1
  Mn  Mn3  1  -0.00002165  -0.00000650  0.00001181  1
  Mn  Mn4  1  0.08655957  0.64224867  0.87844990  1
  Mn  Mn5  1  0.91344185  0.35775314  0.12155498  1
  P  P6  1  0.03307097  0.69388623  0.29826651  1
  P  P7  1  0.46691992  0.19388401  0.20173523  1
  P  P8  1  0.53307588  0.80611893  0.79825951  1
  P  P9  1  0.96693919  0.30610989  0.70173258  1
  O  O10  1  0.04110390  0.58152462  0.14286515  1
  O  O11  1  0.45892699  0.08152841  0.35712445  1
  O  O12  1  0.54106992  0.91846700  0.64286737  1
  O  O13  1  0.95893597  0.41847737  0.85713153  1
  O  O14  1  0.04890795  0.14299970  0.76117307  1
  O  O15  1  0.45112352  0.64299581  0.73883494  1
  O  O16  1  0.54887462  0.35700372  0.26116665  1
  O  O17  1  0.95111060  0.85699818  0.23882307  1
  O  O18  1  0.20055313  0.19500830  0.12689869  1
  O  O19  1  0.29942514  0.69501414  0.37310406  1
  O  O20  1  0.70057988  0.30499353  0.62689953  1
  O  O21  1  0.79944051  0.80498578  0.87309478  1
  O  O22  1  0.17629561  0.35585583  0.56489425  1
  O  O23  1  0.32371474  0.85585552  0.93510809  1
  O  O24  1  0.67627448  0.14414109  0.06487793  1
  O  O25  1  0.82370575  0.64413640  0.43509594  1
