# generated using pymatgen
data_Cs3HoO3
_symmetry_space_group_name_H-M   'P 1'
_cell_length_a   7.48778485
_cell_length_b   7.48778485
_cell_length_c   7.61765008
_cell_angle_alpha   84.07632078
_cell_angle_beta   84.07632078
_cell_angle_gamma   116.21402440
_symmetry_Int_Tables_number   1
_chemical_formula_structural   Cs3HoO3
_chemical_formula_sum   'Cs6 Ho2 O6'
_cell_volume   375.78986706
_cell_formula_units_Z   2
loop_
 _symmetry_equiv_pos_site_id
 _symmetry_equiv_pos_as_xyz
  1  'x, y, z'
loop_
 _atom_site_type_symbol
 _atom_site_label
 _atom_site_symmetry_multiplicity
 _atom_site_fract_x
 _atom_site_fract_y
 _atom_site_fract_z
 _atom_site_occupancy
  Cs  Cs0  1  0.64374480  0.64374480  0.64761913  1
  Cs  Cs1  1  0.78963911  0.21036089  0.50000000  1
  Cs  Cs2  1  0.21036089  0.78963911  0.50000000  1
  Cs  Cs3  1  0.73685000  0.26315000  0.00000000  1
  Cs  Cs4  1  0.26315000  0.73685000  0.00000000  1
  Cs  Cs5  1  0.35625520  0.35625520  0.35238087  1
  Ho  Ho6  1  0.82887485  0.82887485  0.15155319  1
  Ho  Ho7  1  0.17112515  0.17112515  0.84844681  1
  O  O8  1  0.89578729  0.89578729  0.86092617  1
  O  O9  1  0.83754952  0.56632744  0.26754009  1
  O  O10  1  0.56632744  0.83754952  0.26754009  1
  O  O11  1  0.43367256  0.16245048  0.73245991  1
  O  O12  1  0.16245048  0.43367256  0.73245991  1
  O  O13  1  0.10421271  0.10421271  0.13907383  1
