# generated using pymatgen
data_Nb2CdO6
_symmetry_space_group_name_H-M   'P 1'
_cell_length_a   5.17138843
_cell_length_b   5.92478358
_cell_length_c   14.93878738
_cell_angle_alpha   90.00000000
_cell_angle_beta   90.00000000
_cell_angle_gamma   90.00000000
_symmetry_Int_Tables_number   1
_chemical_formula_structural   Nb2CdO6
_chemical_formula_sum   'Nb8 Cd4 O24'
_cell_volume   457.71484351
_cell_formula_units_Z   4
loop_
 _symmetry_equiv_pos_site_id
 _symmetry_equiv_pos_as_xyz
  1  'x, y, z'
loop_
 _atom_site_type_symbol
 _atom_site_label
 _atom_site_symmetry_multiplicity
 _atom_site_fract_x
 _atom_site_fract_y
 _atom_site_fract_z
 _atom_site_occupancy
  Nb  Nb0  1  0.26409640  0.31746515  0.16487876  1
  Nb  Nb1  1  0.76409640  0.68253485  0.16487876  1
  Nb  Nb2  1  0.76409640  0.18253485  0.33512124  1
  Nb  Nb3  1  0.26409640  0.81746515  0.33512124  1
  Nb  Nb4  1  0.73590360  0.18253485  0.66487876  1
  Nb  Nb5  1  0.23590360  0.81746515  0.66487876  1
  Nb  Nb6  1  0.23590360  0.31746515  0.83512124  1
  Nb  Nb7  1  0.73590360  0.68253485  0.83512124  1
  Cd  Cd8  1  0.75000000  0.19321917  -0.00000000  1
  Cd  Cd9  1  0.25000000  0.80678083  -0.00000000  1
  Cd  Cd10  1  0.25000000  0.30678083  0.50000000  1
  Cd  Cd11  1  0.75000000  0.69321917  0.50000000  1
  O  O12  1  0.39499705  0.11507295  0.08556476  1
  O  O13  1  0.89499705  0.88492705  0.08556476  1
  O  O14  1  0.95083782  0.41011856  0.10274988  1
  O  O15  1  0.45083782  0.58988144  0.10274988  1
  O  O16  1  0.58995183  0.36955122  0.24448757  1
  O  O17  1  0.08995183  0.63044878  0.24448757  1
  O  O18  1  0.08995183  0.13044878  0.25551243  1
  O  O19  1  0.58995183  0.86955122  0.25551243  1
  O  O20  1  0.45083782  0.08988144  0.39725012  1
  O  O21  1  0.95083782  0.91011856  0.39725012  1
  O  O22  1  0.89499705  0.38492705  0.41443524  1
  O  O23  1  0.39499705  0.61507295  0.41443524  1
  O  O24  1  0.60500295  0.38492705  0.58556476  1
  O  O25  1  0.10500295  0.61507295  0.58556476  1
  O  O26  1  0.04916218  0.08988144  0.60274988  1
  O  O27  1  0.54916218  0.91011856  0.60274988  1
  O  O28  1  0.41004817  0.13044878  0.74448757  1
  O  O29  1  0.91004817  0.86955122  0.74448757  1
  O  O30  1  0.91004817  0.36955122  0.75551243  1
  O  O31  1  0.41004817  0.63044878  0.75551243  1
  O  O32  1  0.54916218  0.41011856  0.89725012  1
  O  O33  1  0.04916218  0.58988144  0.89725012  1
  O  O34  1  0.10500295  0.11507295  0.91443524  1
  O  O35  1  0.60500295  0.88492705  0.91443524  1
