# generated using pymatgen
data_Lu3Sb5O12
_symmetry_space_group_name_H-M   'P 1'
_cell_length_a   9.17227424
_cell_length_b   9.17227424
_cell_length_c   9.17227424
_cell_angle_alpha   109.47122063
_cell_angle_beta   109.47122063
_cell_angle_gamma   109.47122063
_symmetry_Int_Tables_number   1
_chemical_formula_structural   Lu3Sb5O12
_chemical_formula_sum   'Lu6 Sb10 O24'
_cell_volume   594.03112678
_cell_formula_units_Z   2
loop_
 _symmetry_equiv_pos_site_id
 _symmetry_equiv_pos_as_xyz
  1  'x, y, z'
loop_
 _atom_site_type_symbol
 _atom_site_label
 _atom_site_symmetry_multiplicity
 _atom_site_fract_x
 _atom_site_fract_y
 _atom_site_fract_z
 _atom_site_occupancy
  Lu  Lu0  1  0.75000000  0.25000000  0.50000000  1
  Lu  Lu1  1  0.75000000  0.50000000  0.25000000  1
  Lu  Lu2  1  0.50000000  0.25000000  0.75000000  1
  Lu  Lu3  1  0.50000000  0.75000000  0.25000000  1
  Lu  Lu4  1  0.25000000  0.75000000  0.50000000  1
  Lu  Lu5  1  0.25000000  0.50000000  0.75000000  1
  Sb  Sb6  1  0.52093766  0.00000000  0.00000000  1
  Sb  Sb7  1  0.28225758  -0.00000000  0.28225758  1
  Sb  Sb8  1  0.28225758  0.28225758  0.00000000  1
  Sb  Sb9  1  0.71774242  -0.00000000  0.71774242  1
  Sb  Sb10  1  0.71774242  0.71774242  -0.00000000  1
  Sb  Sb11  1  -0.00000000  0.52093766  -0.00000000  1
  Sb  Sb12  1  -0.00000000  -0.00000000  0.52093766  1
  Sb  Sb13  1  0.47906234  0.47906234  0.47906234  1
  Sb  Sb14  1  0.00000000  0.28225758  0.28225758  1
  Sb  Sb15  1  -0.00000000  0.71774242  0.71774242  1
  O  O16  1  0.48141670  -0.00000000  0.20246287  1
  O  O17  1  0.48141670  0.20246287  -0.00000000  1
  O  O18  1  0.70205237  0.49839852  -0.00000000  1
  O  O19  1  0.70205237  0.00000000  0.49839852  1
  O  O20  1  0.79634615  0.29794763  0.29794763  1
  O  O21  1  0.50160148  0.50160148  0.20365385  1
  O  O22  1  0.50160148  0.20365385  0.50160148  1
  O  O23  1  0.49839852  0.70205237  -0.00000000  1
  O  O24  1  0.49839852  -0.00000000  0.70205237  1
  O  O25  1  0.72104617  0.51858330  0.51858330  1
  O  O26  1  0.79753713  0.27895383  0.79753713  1
  O  O27  1  0.79753713  0.79753713  0.27895383  1
  O  O28  1  0.20246287  0.48141670  -0.00000000  1
  O  O29  1  0.20246287  -0.00000000  0.48141670  1
  O  O30  1  0.51858330  0.72104617  0.51858330  1
  O  O31  1  0.51858330  0.51858330  0.72104617  1
  O  O32  1  0.00000000  0.48141670  0.20246287  1
  O  O33  1  0.00000000  0.20246287  0.48141670  1
  O  O34  1  0.29794763  0.79634615  0.29794763  1
  O  O35  1  0.29794763  0.29794763  0.79634615  1
  O  O36  1  0.20365385  0.50160148  0.50160148  1
  O  O37  1  0.00000000  0.70205237  0.49839852  1
  O  O38  1  0.00000000  0.49839852  0.70205237  1
  O  O39  1  0.27895383  0.79753713  0.79753713  1
