# generated using pymatgen
data_LiVCrO4
_symmetry_space_group_name_H-M   'P 1'
_cell_length_a   5.84010577
_cell_length_b   5.83504027
_cell_length_c   5.77845652
_cell_angle_alpha   91.64718680
_cell_angle_beta   120.44420644
_cell_angle_gamma   59.70630936
_symmetry_Int_Tables_number   1
_chemical_formula_structural   LiVCrO4
_chemical_formula_sum   'Li2 V2 Cr2 O8'
_cell_volume   139.61067864
_cell_formula_units_Z   2
loop_
 _symmetry_equiv_pos_site_id
 _symmetry_equiv_pos_as_xyz
  1  'x, y, z'
loop_
 _atom_site_type_symbol
 _atom_site_label
 _atom_site_symmetry_multiplicity
 _atom_site_fract_x
 _atom_site_fract_y
 _atom_site_fract_z
 _atom_site_occupancy
  Li  Li0  1  0.24930820  0.12530059  0.12469199  1
  Li  Li1  1  0.75069047  0.87470284  0.87530472  1
  V  V2  1  -0.00000149  0.49999831  0.49999697  1
  V  V3  1  0.50000312  0.49999841  0.49999366  1
  Cr  Cr4  1  0.50000112  0.49999617  0.00000659  1
  Cr  Cr5  1  -0.00001333  0.00001270  0.49999293  1
  O  O6  1  0.52142329  0.26679205  0.26446523  1
  O  O7  1  0.97785627  0.26199494  0.26511979  1
  O  O8  1  0.02214733  0.73799999  0.73488585  1
  O  O9  1  0.47858366  0.73320211  0.73554361  1
  O  O10  1  0.97508973  0.27071266  0.71818212  1
  O  O11  1  0.52940261  0.71779973  0.27298857  1
  O  O12  1  0.02491035  0.72929241  0.28181602  1
  O  O13  1  0.47059867  0.28219609  0.72701096  1
