# generated using pymatgen
data_Ba2Sc2O5
_symmetry_space_group_name_H-M   'P 1'
_cell_length_a   5.98791750
_cell_length_b   11.85484784
_cell_length_c   4.01667993
_cell_angle_alpha   90.00000000
_cell_angle_beta   90.00000000
_cell_angle_gamma   90.00000000
_symmetry_Int_Tables_number   1
_chemical_formula_structural   Ba2Sc2O5
_chemical_formula_sum   'Ba4 Sc4 O10'
_cell_volume   285.12744239
_cell_formula_units_Z   2
loop_
 _symmetry_equiv_pos_site_id
 _symmetry_equiv_pos_as_xyz
  1  'x, y, z'
loop_
 _atom_site_type_symbol
 _atom_site_label
 _atom_site_symmetry_multiplicity
 _atom_site_fract_x
 _atom_site_fract_y
 _atom_site_fract_z
 _atom_site_occupancy
  Ba  Ba0  1  0.23302202  0.87305686  0.50000000  1
  Ba  Ba1  1  0.26697798  0.37305686  0.50000000  1
  Ba  Ba2  1  0.73302202  0.62694314  0.50000000  1
  Ba  Ba3  1  0.76697798  0.12694314  0.50000000  1
  Sc  Sc4  1  0.26324914  0.63241278  0.00000000  1
  Sc  Sc5  1  0.23675086  0.13241278  0.00000000  1
  Sc  Sc6  1  0.76324914  0.86758722  0.00000000  1
  Sc  Sc7  1  0.73675086  0.36758722  0.00000000  1
  O  O8  1  -0.00000000  -0.00000000  0.00000000  1
  O  O9  1  0.01905071  0.25741192  -0.00000000  1
  O  O10  1  0.19347309  0.59933858  0.50000000  1
  O  O11  1  0.30652691  0.09933958  0.50000000  1
  O  O12  1  0.48094929  0.75741192  0.00000000  1
  O  O13  1  0.50000000  0.50000000  0.00000000  1
  O  O14  1  0.51905071  0.24258808  0.00000000  1
  O  O15  1  0.69347309  0.90066142  0.50000000  1
  O  O16  1  0.80652691  0.40066142  0.50000000  1
  O  O17  1  0.98094929  0.74258808  0.00000000  1
