# generated using pymatgen
data_Li8Mn7Fe(BO3)8
_symmetry_space_group_name_H-M   'P 1'
_cell_length_a   5.20566362
_cell_length_b   5.88337228
_cell_length_c   17.42694591
_cell_angle_alpha   84.05065423
_cell_angle_beta   81.37026650
_cell_angle_gamma   66.01729507
_symmetry_Int_Tables_number   1
_chemical_formula_structural   Li8Mn7Fe(BO3)8
_chemical_formula_sum   'Li8 Mn7 Fe1 B8 O24'
_cell_volume   481.59562363
_cell_formula_units_Z   1
loop_
 _symmetry_equiv_pos_site_id
 _symmetry_equiv_pos_as_xyz
  1  'x, y, z'
loop_
 _atom_site_type_symbol
 _atom_site_label
 _atom_site_symmetry_multiplicity
 _atom_site_fract_x
 _atom_site_fract_y
 _atom_site_fract_z
 _atom_site_occupancy
  Li  Li0  1  0.08912925  0.91078659  0.76834335  1
  Li  Li1  1  0.91290795  0.58716476  0.73291710  1
  Li  Li2  1  0.41230440  0.83843627  0.48174768  1
  Li  Li3  1  0.58622591  0.66135454  0.01787774  1
  Li  Li4  1  0.41214356  0.33806324  0.98384264  1
  Li  Li5  1  0.58886838  0.16179232  0.51675151  1
  Li  Li6  1  0.08955834  0.40975386  0.26581053  1
  Li  Li7  1  0.91422982  0.08870140  0.23222340  1
  Mn  Mn8  1  0.54600853  0.90762175  0.85253326  1
  Mn  Mn9  1  0.95625168  0.84134574  0.39746106  1
  Mn  Mn10  1  0.95480733  0.34277720  0.89788363  1
  Mn  Mn11  1  0.45428622  0.59265268  0.64759116  1
  Mn  Mn12  1  0.54678443  0.40738608  0.35152795  1
  Mn  Mn13  1  0.03672926  0.66629110  0.10449222  1
  Mn  Mn14  1  0.04639792  0.15631683  0.60239054  1
  Fe  Fe15  1  0.44558344  0.09828043  0.14564085  1
  B  B16  1  0.94479758  0.69469629  0.56582627  1
  B  B17  1  0.44981077  0.94447175  0.31434534  1
  B  B18  1  0.05435649  0.80411995  0.93503834  1
  B  B19  1  0.44520320  0.44465528  0.81659016  1
  B  B20  1  0.55217136  0.55717735  0.18362690  1
  B  B21  1  0.94165653  0.19410094  0.06719700  1
  B  B22  1  0.55638636  0.05421764  0.68415989  1
  B  B23  1  0.05651504  0.30434051  0.43345904  1
  O  O24  1  0.73028191  0.96025565  0.74182785  1
  O  O25  1  0.82275827  0.74570736  0.93414494  1
  O  O26  1  0.32520345  -0.00597455  0.68430175  1
  O  O27  1  0.12075001  0.95151255  0.87404484  1
  O  O28  1  0.77111362  0.78904001  0.50816906  1
  O  O29  1  0.22508132  0.70880760  0.99331956  1
  O  O30  1  0.88114989  0.54722079  0.62722940  1
  O  O31  1  0.38070414  0.79943587  0.37569318  1
  O  O32  1  0.67634666  0.50455372  0.81657214  1
  O  O33  1  0.17623736  0.75449114  0.56571489  1
  O  O34  1  0.61636970  0.70569741  0.12275984  1
  O  O35  1  0.27239737  0.53796313  0.75875824  1
  O  O36  1  0.72841629  0.45979573  0.24076294  1
  O  O37  1  0.38105548  0.29780779  0.87813083  1
  O  O38  1  0.82473515  0.24551923  0.43324196  1
  O  O39  1  0.31969019  0.49917367  0.18392381  1
  O  O40  1  0.61967847  0.20195101  0.62280538  1
  O  O41  1  0.12168604  0.45087851  0.37204648  1
  O  O42  1  0.77311292  0.29179780  0.00874178  1
  O  O43  1  0.22850570  0.21062082  0.49152391  1
  O  O44  1  0.86708439  0.05359709  0.12851458  1
  O  O45  1  0.68070996  0.00350580  0.31573259  1
  O  O46  1  0.18173345  0.24278282  0.06739938  1
  O  O47  1  0.28208448  0.03735654  0.25536412  1
