# generated using pymatgen
data_Cr(PO3)2
_symmetry_space_group_name_H-M   'P 1'
_cell_length_a   7.67996011
_cell_length_b   7.67996011
_cell_length_c   9.84656814
_cell_angle_alpha   65.20411164
_cell_angle_beta   65.20411164
_cell_angle_gamma   64.57327619
_symmetry_Int_Tables_number   1
_chemical_formula_structural   Cr(PO3)2
_chemical_formula_sum   'Cr4 P8 O24'
_cell_volume   455.41903551
_cell_formula_units_Z   4
loop_
 _symmetry_equiv_pos_site_id
 _symmetry_equiv_pos_as_xyz
  1  'x, y, z'
loop_
 _atom_site_type_symbol
 _atom_site_label
 _atom_site_symmetry_multiplicity
 _atom_site_fract_x
 _atom_site_fract_y
 _atom_site_fract_z
 _atom_site_occupancy
  Cr  Cr0  1  0.05336454  0.94663546  0.25000000  1
  Cr  Cr1  1  -0.00000000  0.50000000  0.50000000  1
  Cr  Cr2  1  0.50000000  -0.00000000  0.00000000  1
  Cr  Cr3  1  0.94663546  0.05336454  0.75000000  1
  P  P4  1  0.68373439  0.68722353  0.80627704  1
  P  P5  1  0.24984681  0.72759693  0.97843672  1
  P  P6  1  0.68722353  0.68373439  0.30627704  1
  P  P7  1  0.27240307  0.75015319  0.52156328  1
  P  P8  1  0.72759693  0.24984681  0.47843672  1
  P  P9  1  0.31277647  0.31626561  0.69372296  1
  P  P10  1  0.75015319  0.27240307  0.02156328  1
  P  P11  1  0.31626561  0.31277647  0.19372296  1
  O  O12  1  0.79569818  0.65417779  0.65166732  1
  O  O13  1  0.26993057  0.79833039  0.09025512  1
  O  O14  1  0.45640568  0.70105977  0.84080555  1
  O  O15  1  0.86541766  0.68841570  0.32915916  1
  O  O16  1  0.08162983  0.84406640  0.90984998  1
  O  O17  1  0.79833039  0.26993057  0.59025512  1
  O  O18  1  0.24190782  0.50234707  0.05734429  1
  O  O19  1  0.15593360  0.91837017  0.59015002  1
  O  O20  1  0.49765293  0.75809218  0.44265571  1
  O  O21  1  0.65417779  0.79569818  0.15166732  1
  O  O22  1  0.29894023  0.54359432  0.65919445  1
  O  O23  1  0.31158430  0.13458234  0.17084084  1
  O  O24  1  0.68841570  0.86541766  0.82915916  1
  O  O25  1  0.70105977  0.45640568  0.34080555  1
  O  O26  1  0.34582221  0.20430182  0.84833268  1
  O  O27  1  0.50234707  0.24190782  0.55734429  1
  O  O28  1  0.84406640  0.08162983  0.40984998  1
  O  O29  1  0.75809218  0.49765293  0.94265571  1
  O  O30  1  0.20166961  0.73006943  0.40974488  1
  O  O31  1  0.91837017  0.15593360  0.09015002  1
  O  O32  1  0.13458234  0.31158430  0.67084084  1
  O  O33  1  0.54359432  0.29894023  0.15919445  1
  O  O34  1  0.73006943  0.20166961  0.90974488  1
  O  O35  1  0.20430182  0.34582221  0.34833268  1
