# generated using pymatgen
data_K3Na3TeP6(HO4)6
_symmetry_space_group_name_H-M   'P 1'
_cell_length_a   10.52549278
_cell_length_b   10.52549278
_cell_length_c   12.21685995
_cell_angle_alpha   65.93659421
_cell_angle_beta   65.93659421
_cell_angle_gamma   62.33190863
_symmetry_Int_Tables_number   1
_chemical_formula_structural   K3Na3TeP6(HO4)6
_chemical_formula_sum   'K6 Na6 Te2 P12 H12 O48'
_cell_volume   1053.84482030
_cell_formula_units_Z   2
loop_
 _symmetry_equiv_pos_site_id
 _symmetry_equiv_pos_as_xyz
  1  'x, y, z'
loop_
 _atom_site_type_symbol
 _atom_site_label
 _atom_site_symmetry_multiplicity
 _atom_site_fract_x
 _atom_site_fract_y
 _atom_site_fract_z
 _atom_site_occupancy
  K  K0  1  0.85362426  0.73181150  0.24313929  1
  K  K1  1  0.73181150  0.85362426  0.74313929  1
  K  K2  1  0.63634156  0.36365844  0.25000000  1
  K  K3  1  0.36365844  0.63634156  0.75000000  1
  K  K4  1  0.26818850  0.14637574  0.25686071  1
  K  K5  1  0.14637574  0.26818850  0.75686071  1
  Na  Na6  1  0.46136306  0.74734933  0.24533235  1
  Na  Na7  1  0.06667652  0.93332348  0.25000000  1
  Na  Na8  1  0.74734933  0.46136306  0.74533235  1
  Na  Na9  1  0.25265067  0.53863694  0.25466765  1
  Na  Na10  1  0.93332348  0.06667652  0.75000000  1
  Na  Na11  1  0.53863694  0.25265067  0.75466765  1
  Te  Te12  1  -0.00000000  0.50000000  -0.00000000  1
  Te  Te13  1  0.50000000  0.00000000  0.50000000  1
  P  P14  1  0.66355485  0.01060673  0.01789876  1
  P  P15  1  0.68546383  0.49100410  0.47844327  1
  P  P16  1  0.01060673  0.66355485  0.51789876  1
  P  P17  1  0.82895006  0.17948716  0.48149669  1
  P  P18  1  0.49100410  0.68546383  0.97844327  1
  P  P19  1  0.17948716  0.82895006  0.98149669  1
  P  P20  1  0.82051284  0.17104994  0.01850331  1
  P  P21  1  0.50899590  0.31453617  0.02155673  1
  P  P22  1  0.17104994  0.82051284  0.51850331  1
  P  P23  1  0.98939327  0.33644515  0.48210124  1
  P  P24  1  0.31453617  0.50899590  0.52155673  1
  P  P25  1  0.33644515  0.98939327  0.98210124  1
  H  H26  1  0.51948698  0.81905395  0.40962344  1
  H  H27  1  0.81714983  0.76979233  0.00207794  1
  H  H28  1  0.01150640  0.21733446  0.07292644  1
  H  H29  1  0.81905395  0.51948698  0.90962344  1
  H  H30  1  0.76979233  0.81714983  0.50207794  1
  H  H31  1  0.78266554  0.98849360  0.42707356  1
  H  H32  1  0.21733446  0.01150640  0.57292644  1
  H  H33  1  0.23020767  0.18285017  0.49792206  1
  H  H34  1  0.18094605  0.48051302  0.09037656  1
  H  H35  1  0.98849360  0.78266554  0.92707356  1
  H  H36  1  0.18285017  0.23020767  0.99792206  1
  H  H37  1  0.48051302  0.18094605  0.59037656  1
  O  O38  1  0.73553192  0.91458874  0.44002472  1
  O  O39  1  0.49378882  0.92730674  0.37777162  1
  O  O40  1  0.85769091  0.48183489  0.43528843  1
  O  O41  1  0.91458874  0.73553192  0.94002472  1
  O  O42  1  0.65148078  0.86304590  0.09503167  1
  O  O43  1  0.61121977  0.62569670  0.39074385  1
  O  O44  1  0.97856112  0.21341207  0.44138892  1
  O  O45  1  0.82302524  0.50972765  0.11562264  1
  O  O46  1  0.71336819  0.34614693  0.44224693  1
  O  O47  1  0.21495284  0.88511970  0.38220861  1
  O  O48  1  0.29567093  0.95652130  0.11955297  1
  O  O49  1  0.92730674  0.49378882  0.87777162  1
  O  O50  1  0.48183489  0.85769091  0.93528843  1
  O  O51  1  0.86304590  0.65148078  0.59503167  1
  O  O52  1  0.85221240  0.09924742  0.39456953  1
  O  O53  1  0.62569670  0.61121977  0.89074385  1
  O  O54  1  0.46582063  0.62691193  0.11493747  1
  O  O55  1  0.21341207  0.97856112  0.94138892  1
  O  O56  1  0.37308807  0.53417937  0.38506253  1
  O  O57  1  0.90075258  0.14778760  0.10543047  1
  O  O58  1  0.50972765  0.82302524  0.61562264  1
  O  O59  1  0.34614693  0.71336819  0.94224693  1
  O  O60  1  0.88511970  0.21495284  0.88220861  1
  O  O61  1  0.95652130  0.29567093  0.61955297  1
  O  O62  1  0.04347870  0.70432907  0.38044703  1
  O  O63  1  0.11488030  0.78504716  0.11779139  1
  O  O64  1  0.65385307  0.28663181  0.05775307  1
  O  O65  1  0.49027235  0.17697476  0.38437736  1
  O  O66  1  0.09924742  0.85221240  0.89456953  1
  O  O67  1  0.62691193  0.46582063  0.61493747  1
  O  O68  1  0.78658793  0.02143888  0.05861108  1
  O  O69  1  0.53417937  0.37308807  0.88506253  1
  O  O70  1  0.37430330  0.38878023  0.10925615  1
  O  O71  1  0.14778760  0.90075258  0.60543047  1
  O  O72  1  0.13695410  0.34851922  0.40496833  1
  O  O73  1  0.51816511  0.14230909  0.06471157  1
  O  O74  1  0.07269326  0.50621118  0.12222838  1
  O  O75  1  0.70432907  0.04347870  0.88044703  1
  O  O76  1  0.78504716  0.11488030  0.61779139  1
  O  O77  1  0.28663181  0.65385307  0.55775307  1
  O  O78  1  0.17697476  0.49027235  0.88437736  1
  O  O79  1  0.02143888  0.78658793  0.55861108  1
  O  O80  1  0.38878023  0.37430330  0.60925615  1
  O  O81  1  0.34851922  0.13695410  0.90496833  1
  O  O82  1  0.08541126  0.26446808  0.05997528  1
  O  O83  1  0.14230909  0.51816511  0.56471157  1
  O  O84  1  0.50621118  0.07269326  0.62222838  1
  O  O85  1  0.26446808  0.08541126  0.55997528  1
