# generated using pymatgen
data_Hf2N2O
_symmetry_space_group_name_H-M   'P 1'
_cell_length_a   8.66060395
_cell_length_b   8.66933358
_cell_length_c   8.67487070
_cell_angle_alpha   109.37394175
_cell_angle_beta   109.43813028
_cell_angle_gamma   109.48382413
_symmetry_Int_Tables_number   1
_chemical_formula_structural   Hf2N2O
_chemical_formula_sum   'Hf16 N16 O8'
_cell_volume   502.11628422
_cell_formula_units_Z   8
loop_
 _symmetry_equiv_pos_site_id
 _symmetry_equiv_pos_as_xyz
  1  'x, y, z'
loop_
 _atom_site_type_symbol
 _atom_site_label
 _atom_site_symmetry_multiplicity
 _atom_site_fract_x
 _atom_site_fract_y
 _atom_site_fract_z
 _atom_site_occupancy
  Hf  Hf0  1  0.51245185  0.50004387  0.50111851  1
  Hf  Hf1  1  0.20688100  0.74942706  0.46571542  1
  Hf  Hf2  1  0.96423532  0.21553626  0.24954927  1
  Hf  Hf3  1  0.47597179  0.71972066  0.25097136  1
  Hf  Hf4  1  0.29361869  0.24624149  0.03461444  1
  Hf  Hf5  1  0.74832058  0.96583751  0.71544415  1
  Hf  Hf6  1  0.25294444  0.03504422  0.28580429  1
  Hf  Hf7  1  0.24137602  0.53071926  0.78476580  1
  Hf  Hf8  1  0.98354897  0.49346310  0.99525898  1
  Hf  Hf9  1  0.75224397  0.47135071  0.21330543  1
  Hf  Hf10  1  0.00046403  0.99876933  0.48930707  1
  Hf  Hf11  1  0.50166002  0.00001707  0.00073587  1
  Hf  Hf12  1  0.71887466  0.75874177  0.96980474  1
  Hf  Hf13  1  0.53515273  0.28167489  0.74802509  1
  Hf  Hf14  1  0.02648889  0.78016528  0.75168484  1
  Hf  Hf15  1  0.78762725  0.24981132  0.54187634  1
  N  N16  1  0.76902751  0.72850210  0.73488436  1
  N  N17  1  0.53979387  0.51150049  0.27183175  1
  N  N18  1  0.95601181  0.72808906  0.47324492  1
  N  N19  1  0.50439584  0.76625771  0.04000733  1
  N  N20  1  0.73693725  0.01568080  0.96689886  1
  N  N21  1  0.01398884  0.46617857  0.23864286  1
  N  N22  1  0.04828037  0.27428547  0.53411420  1
  N  N23  1  0.76233632  0.22943792  0.77376381  1
  N  N24  1  0.72610559  0.96333456  0.45655733  1
  N  N25  1  0.99681206  0.53908278  0.76758736  1
  N  N26  1  0.96931612  0.95574751  0.22635844  1
  N  N27  1  0.25861795  0.98726736  0.03274558  1
  N  N28  1  0.48704589  0.22537877  0.95443648  1
  N  N29  1  0.77153333  0.54704316  0.01073003  1
  N  N30  1  0.27380753  0.02994055  0.54322578  1
  N  N31  1  0.53634566  0.26616622  0.48524764  1
  O  O32  1  0.22830216  0.27361652  0.26494164  1
  O  O33  1  0.46134258  0.73876215  0.51510935  1
  O  O34  1  0.27977985  0.76057377  0.72548615  1
  O  O35  1  0.45118946  0.48859019  0.72156537  1
  O  O36  1  0.24528882  0.77184994  0.23052499  1
  O  O37  1  0.72512622  0.23381456  0.27079312  1
  O  O38  1  0.03456411  0.05514631  0.77923465  1
  O  O39  1  0.22219666  0.44718570  0.98408740  1
