# generated using pymatgen
data_K3SiTe3
_symmetry_space_group_name_H-M   'P 1'
_cell_length_a   8.41251753
_cell_length_b   8.41251866
_cell_length_c   8.90754350
_cell_angle_alpha   105.28879725
_cell_angle_beta   105.28879737
_cell_angle_gamma   109.53528349
_symmetry_Int_Tables_number   1
_chemical_formula_structural   K3SiTe3
_chemical_formula_sum   'K6 Si2 Te6'
_cell_volume   528.41151255
_cell_formula_units_Z   2
loop_
 _symmetry_equiv_pos_site_id
 _symmetry_equiv_pos_as_xyz
  1  'x, y, z'
loop_
 _atom_site_type_symbol
 _atom_site_label
 _atom_site_symmetry_multiplicity
 _atom_site_fract_x
 _atom_site_fract_y
 _atom_site_fract_z
 _atom_site_occupancy
  K  K0  1  0.79381754  0.79381754  0.32504287  1
  K  K1  1  0.50000000  -0.00000000  0.00000000  1
  K  K2  1  0.65862812  0.34137188  0.50000000  1
  K  K3  1  0.34137188  0.65862812  0.50000000  1
  K  K4  1  -0.00000000  0.50000000  0.00000000  1
  K  K5  1  0.20618246  0.20618246  0.67495713  1
  Si  Si6  1  0.89254768  0.89254768  0.86131156  1
  Si  Si7  1  0.10745232  0.10745232  0.13868844  1
  Te  Te8  1  0.36096337  0.36096337  0.12111247  1
  Te  Te9  1  0.63903663  0.63903663  0.87888753  1
  Te  Te10  1  0.94779910  0.24810685  0.29637493  1
  Te  Te11  1  0.75189315  0.05220090  0.70362507  1
  Te  Te12  1  0.05220090  0.75189315  0.70362507  1
  Te  Te13  1  0.24810685  0.94779910  0.29637493  1
