# generated using pymatgen
data_Dy2Ti2O7
_symmetry_space_group_name_H-M   'P 1'
_cell_length_a   5.30781145
_cell_length_b   7.47918895
_cell_length_c   13.06433114
_cell_angle_alpha   81.63601787
_cell_angle_beta   90.00001652
_cell_angle_gamma   89.99998683
_symmetry_Int_Tables_number   1
_chemical_formula_structural   Dy2Ti2O7
_chemical_formula_sum   'Dy8 Ti8 O28'
_cell_volume   513.11328866
_cell_formula_units_Z   4
loop_
 _symmetry_equiv_pos_site_id
 _symmetry_equiv_pos_as_xyz
  1  'x, y, z'
loop_
 _atom_site_type_symbol
 _atom_site_label
 _atom_site_symmetry_multiplicity
 _atom_site_fract_x
 _atom_site_fract_y
 _atom_site_fract_z
 _atom_site_occupancy
  Dy  Dy0  1  0.77109793  0.76617977  0.92329313  1
  Dy  Dy1  1  0.35777957  0.85825220  0.56349408  1
  Dy  Dy2  1  0.24717796  0.71495466  0.13218321  1
  Dy  Dy3  1  0.78054137  0.64552772  0.38619069  1
  Dy  Dy4  1  0.28054182  0.35447232  0.61380943  1
  Dy  Dy5  1  0.74717762  0.28504474  0.86781669  1
  Dy  Dy6  1  0.85777973  0.14174768  0.43650630  1
  Dy  Dy7  1  0.27109832  0.23382059  0.07670679  1
  Ti  Ti8  1  0.28331521  0.92874561  0.32044822  1
  Ti  Ti9  1  0.76734348  0.96997910  0.12149087  1
  Ti  Ti10  1  0.79399720  0.58952368  0.67278911  1
  Ti  Ti11  1  0.26708594  0.53056685  0.87446548  1
  Ti  Ti12  1  0.76708643  0.46943236  0.12553441  1
  Ti  Ti13  1  0.29399999  0.41047615  0.32721128  1
  Ti  Ti14  1  0.26734290  0.03002199  0.87850824  1
  Ti  Ti15  1  0.78331513  0.07125470  0.67955179  1
  O  O16  1  0.43454976  0.99053963  0.17901729  1
  O  O17  1  0.56281553  0.92616712  0.40758485  1
  O  O18  1  0.67318530  0.82760351  0.68568183  1
  O  O19  1  0.34878615  0.77853833  0.88435821  1
  O  O20  1  0.06659958  0.86032751  0.43135961  1
  O  O21  1  0.04147302  0.94156487  0.02412510  1
  O  O22  1  0.95539630  0.87186439  0.23240325  1
  O  O23  1  0.09705262  0.63387422  0.61714954  1
  O  O24  1  0.93228176  0.57738347  0.82236776  1
  O  O25  1  0.37861856  0.67356199  0.30457641  1
  O  O26  1  0.65437596  0.72749625  0.09063404  1
  O  O27  1  0.58961254  0.58717645  0.55290391  1
  O  O28  1  0.53875739  0.45476382  0.97398985  1
  O  O29  1  0.45649834  0.48656829  0.76446937  1
  O  O30  1  0.95649876  0.51343167  0.23553091  1
  O  O31  1  0.03875813  0.54523595  0.02601071  1
  O  O32  1  0.08961275  0.41282399  0.44709622  1
  O  O33  1  0.15437625  0.27250353  0.90936602  1
  O  O34  1  0.87861613  0.32643968  0.69542231  1
  O  O35  1  0.43228305  0.42261562  0.17763258  1
  O  O36  1  0.59705327  0.36612760  0.38285195  1
  O  O37  1  0.45539555  0.12813573  0.76759655  1
  O  O38  1  0.54147348  0.05843424  0.97587475  1
  O  O39  1  0.56659913  0.13967193  0.56864026  1
  O  O40  1  0.84878632  0.22146120  0.11564140  1
  O  O41  1  0.17318545  0.17239642  0.31431832  1
  O  O42  1  0.06281532  0.07383298  0.59241482  1
  O  O43  1  0.93454902  0.00946051  0.82098249  1
