# generated using pymatgen
data_Li5Mn2(PO4)3
_symmetry_space_group_name_H-M   'P 1'
_cell_length_a   8.36030438
_cell_length_b   8.35954969
_cell_length_c   9.31206409
_cell_angle_alpha   90.15139385
_cell_angle_beta   116.21048240
_cell_angle_gamma   119.75651406
_symmetry_Int_Tables_number   1
_chemical_formula_structural   Li5Mn2(PO4)3
_chemical_formula_sum   'Li10 Mn4 P6 O24'
_cell_volume   485.90059112
_cell_formula_units_Z   2
loop_
 _symmetry_equiv_pos_site_id
 _symmetry_equiv_pos_as_xyz
  1  'x, y, z'
loop_
 _atom_site_type_symbol
 _atom_site_label
 _atom_site_symmetry_multiplicity
 _atom_site_fract_x
 _atom_site_fract_y
 _atom_site_fract_z
 _atom_site_occupancy
  Li  Li0  1  0.28980602  0.49827938  0.40036460  1
  Li  Li1  1  0.37343697  0.05643087  0.10549945  1
  Li  Li2  1  0.09966880  0.20894257  0.60314152  1
  Li  Li3  1  0.65609493  0.18625636  0.40428006  1
  Li  Li4  1  0.02318393  0.30807058  0.10068397  1
  Li  Li5  1  0.38054586  0.86120691  0.60238006  1
  Li  Li6  1  0.80354222  0.73176850  0.15064238  1
  Li  Li7  1  0.21257274  0.27082435  0.90434179  1
  Li  Li8  1  0.61154301  0.92481576  0.90193747  1
  Li  Li9  1  0.92468210  0.64871231  0.85669044  1
  Mn  Mn10  1  0.71798256  0.84543568  0.56457130  1
  Mn  Mn11  1  0.30073484  0.64542846  0.96599191  1
  Mn  Mn12  1  0.67805577  0.34386892  0.02791738  1
  Mn  Mn13  1  0.29354925  0.14178799  0.43695705  1
  P  P14  1  0.80662747  0.23677399  0.75609454  1
  P  P15  1  0.79350101  0.05903534  0.24919672  1
  P  P16  1  0.49152856  0.44018318  0.24886769  1
  P  P17  1  0.49057052  0.54716442  0.75643262  1
  P  P18  1  0.20045339  0.94756224  0.75415354  1
  P  P19  1  0.18574207  0.73471777  0.24027036  1
  O  O20  1  0.28486777  0.41619160  0.10438986  1
  O  O21  1  0.56507797  0.57679646  0.40468601  1
  O  O22  1  0.37433154  0.76939273  0.40722979  1
  O  O23  1  0.24808287  0.79528422  0.10581999  1
  O  O24  1  0.91738290  0.14091133  0.73881587  1
  O  O25  1  0.66364505  0.86536995  0.11581731  1
  O  O26  1  0.43000721  0.23962028  0.27902295  1
  O  O27  1  0.81048539  0.03706821  0.41826996  1
  O  O28  1  0.95803001  0.45469613  0.80533961  1
  O  O29  1  0.67608711  0.16167070  0.19122854  1
  O  O30  1  0.01966747  0.18036845  0.27299901  1
  O  O31  1  0.65524555  0.50387202  0.19399750  1
  O  O32  1  0.33122191  0.48523737  0.81816845  1
  O  O33  1  0.97777080  0.82333942  0.73243828  1
  O  O34  1  0.31376391  0.84022723  0.79354886  1
  O  O35  1  0.01809787  0.51716925  0.17796244  1
  O  O36  1  0.18667896  0.01071364  0.59785453  1
  O  O37  1  0.56442991  0.74817869  0.72918742  1
  O  O38  1  0.33349592  0.13029733  0.90318803  1
  O  O39  1  0.10309614  0.85188936  0.26912832  1
  O  O40  1  0.75310502  0.18087061  0.89559922  1
  O  O41  1  0.59659023  0.15770878  0.58930855  1
  O  O42  1  0.36468646  0.39654251  0.58839085  1
  O  O43  1  0.68823202  0.55251917  0.88849379  1
