# generated using pymatgen
data_Lu2WO6
_symmetry_space_group_name_H-M   'P 1'
_cell_length_a   5.10277320
_cell_length_b   8.88837963
_cell_length_c   9.70610128
_cell_angle_alpha   90.00000000
_cell_angle_beta   90.00000000
_cell_angle_gamma   90.00000000
_symmetry_Int_Tables_number   1
_chemical_formula_structural   Lu2WO6
_chemical_formula_sum   'Lu8 W4 O24'
_cell_volume   440.22396397
_cell_formula_units_Z   4
loop_
 _symmetry_equiv_pos_site_id
 _symmetry_equiv_pos_as_xyz
  1  'x, y, z'
loop_
 _atom_site_type_symbol
 _atom_site_label
 _atom_site_symmetry_multiplicity
 _atom_site_fract_x
 _atom_site_fract_y
 _atom_site_fract_z
 _atom_site_occupancy
  Lu  Lu0  1  0.01302930  0.39580235  0.03318542  1
  Lu  Lu1  1  0.04103747  0.28104846  0.62662768  1
  Lu  Lu2  1  0.45896253  0.71895154  0.12662768  1
  Lu  Lu3  1  0.48697070  0.60419765  0.53318542  1
  Lu  Lu4  1  0.51302930  0.10419765  0.96681458  1
  Lu  Lu5  1  0.54103747  0.21895154  0.37337232  1
  Lu  Lu6  1  0.95896253  0.78104846  0.87337232  1
  Lu  Lu7  1  0.98697070  0.89580235  0.46681458  1
  W  W8  1  0.03649943  0.00495454  0.15475675  1
  W  W9  1  0.46350057  0.99504546  0.65475675  1
  W  W10  1  0.53649943  0.49504546  0.84524325  1
  W  W11  1  0.96350057  0.50495454  0.34524325  1
  O  O12  1  0.09470204  0.65917191  0.46768670  1
  O  O13  1  0.17950384  0.54429987  0.19588179  1
  O  O14  1  0.17577574  0.86081070  0.68182548  1
  O  O15  1  0.19934802  0.85732091  0.26564066  1
  O  O16  1  0.23749979  0.38287048  0.43030719  1
  O  O17  1  0.25410746  0.08888658  0.50280106  1
  O  O18  1  0.24589254  0.91111342  0.00280106  1
  O  O19  1  0.26250021  0.61712952  0.93030719  1
  O  O20  1  0.30065198  0.14267909  0.76564066  1
  O  O21  1  0.32422426  0.13918930  0.18182548  1
  O  O22  1  0.32049616  0.45570013  0.69588179  1
  O  O23  1  0.40529796  0.34082809  0.96768670  1
  O  O24  1  0.59470204  0.84082809  0.53231330  1
  O  O25  1  0.67950384  0.95570013  0.80411821  1
  O  O26  1  0.67577574  0.63918930  0.31817452  1
  O  O27  1  0.69934802  0.64267909  0.73435934  1
  O  O28  1  0.73749979  0.11712952  0.56969281  1
  O  O29  1  0.75410746  0.41111342  0.49719894  1
  O  O30  1  0.74589254  0.58888658  0.99719894  1
  O  O31  1  0.76250021  0.88287048  0.06969281  1
  O  O32  1  0.80065198  0.35732091  0.23435934  1
  O  O33  1  0.82422426  0.36081070  0.81817452  1
  O  O34  1  0.82049616  0.04429987  0.30411821  1
  O  O35  1  0.90529796  0.15917191  0.03231330  1
