# generated using pymatgen
data_Gd5Y3O12
_symmetry_space_group_name_H-M   'P 1'
_cell_length_a   9.29687706
_cell_length_b   9.29687434
_cell_length_c   9.29687184
_cell_angle_alpha   109.50619403
_cell_angle_beta   109.48184159
_cell_angle_gamma   109.42537479
_symmetry_Int_Tables_number   1
_chemical_formula_structural   Gd5Y3O12
_chemical_formula_sum   'Gd10 Y6 O24'
_cell_volume   618.57188875
_cell_formula_units_Z   2
loop_
 _symmetry_equiv_pos_site_id
 _symmetry_equiv_pos_as_xyz
  1  'x, y, z'
loop_
 _atom_site_type_symbol
 _atom_site_label
 _atom_site_symmetry_multiplicity
 _atom_site_fract_x
 _atom_site_fract_y
 _atom_site_fract_z
 _atom_site_occupancy
  Gd  Gd0  1  0.21674155  0.96674183  0.24999739  1
  Gd  Gd1  1  0.03232437  0.75000033  0.78232508  1
  Gd  Gd2  1  0.53175511  0.75000095  0.28175314  1
  Gd  Gd3  1  0.71839773  0.46839773  0.24999800  1
  Gd  Gd4  1  0.28325726  0.53325774  0.75000016  1
  Gd  Gd5  1  0.46767838  0.25000170  0.71767604  1
  Gd  Gd6  1  0.96824632  0.24999989  0.21824511  1
  Gd  Gd7  1  0.75000008  0.28227266  0.53227196  1
  Gd  Gd8  1  0.25000215  0.21772951  0.96773375  1
  Gd  Gd9  1  0.78160001  0.03159965  0.75000122  1
  Y  Y10  1  0.99938331  0.50054342  0.00085459  1
  Y  Y11  1  0.75000024  0.78300797  0.03300722  1
  Y  Y12  1  0.24999956  0.71699242  0.46699233  1
  Y  Y13  1  0.99968839  0.99852785  0.49914491  1
  Y  Y14  1  0.50031110  0.99945662  0.99884036  1
  Y  Y15  1  0.50061671  0.50147128  0.50115937  1
  O  O16  1  0.49157883  0.76405722  0.03134071  1
  O  O17  1  0.26728263  0.73594488  0.22752232  1
  O  O18  1  0.04151120  0.27381728  0.01066233  1
  O  O19  1  0.23705983  0.96569818  0.51031627  1
  O  O20  1  0.26293826  0.77325821  0.72863951  1
  O  O21  1  0.45849022  0.46914883  0.23230628  1
  O  O22  1  0.00842204  0.03976147  0.27247682  1
  O  O23  1  0.23271557  0.46023790  0.46865804  1
  O  O24  1  0.52836496  0.76868334  0.54147422  1
  O  O25  1  0.77279074  0.73131617  0.25968177  1
  O  O26  1  0.03178150  0.49025338  0.76409446  1
  O  O27  1  0.27384161  0.00974768  0.04153167  1
  O  O28  1  0.22615694  0.26768724  0.73590522  1
  O  O29  1  0.46821689  0.23231097  0.45846857  1
  O  O30  1  0.72720976  0.98689073  0.95852585  1
  O  O31  1  0.97163420  0.51310793  0.24031837  1
  O  O32  1  0.76806047  0.54206825  0.53118814  1
  O  O33  1  0.98911849  0.95792937  0.72599088  1
  O  O34  1  0.54461950  0.53430084  0.77136126  1
  O  O35  1  0.73684332  0.22618374  0.26769342  1
  O  O36  1  0.95538178  0.72674234  0.98968048  1
  O  O37  1  0.76315662  0.03085105  0.48934041  1
  O  O38  1  0.51088127  0.23687288  0.96881382  1
  O  O39  1  0.73194111  0.26312857  0.77400856  1
