# generated using pymatgen
data_Na5GaO4
_symmetry_space_group_name_H-M   'P 1'
_cell_length_a   5.90413663
_cell_length_b   10.21494050
_cell_length_c   17.87166041
_cell_angle_alpha   90.00000000
_cell_angle_beta   90.00000000
_cell_angle_gamma   90.00000000
_symmetry_Int_Tables_number   1
_chemical_formula_structural   Na5GaO4
_chemical_formula_sum   'Na40 Ga8 O32'
_cell_volume   1077.84706626
_cell_formula_units_Z   8
loop_
 _symmetry_equiv_pos_site_id
 _symmetry_equiv_pos_as_xyz
  1  'x, y, z'
loop_
 _atom_site_type_symbol
 _atom_site_label
 _atom_site_symmetry_multiplicity
 _atom_site_fract_x
 _atom_site_fract_y
 _atom_site_fract_z
 _atom_site_occupancy
  Na  Na0  1  0.92503098  0.20064278  0.36088050  1
  Na  Na1  1  0.42503098  0.79935722  0.13911950  1
  Na  Na2  1  0.57496902  0.70064278  0.63911950  1
  Na  Na3  1  0.07496902  0.29935722  0.86088050  1
  Na  Na4  1  0.07496902  0.79935722  0.63911950  1
  Na  Na5  1  0.57496902  0.20064278  0.86088050  1
  Na  Na6  1  0.42503098  0.29935722  0.36088050  1
  Na  Na7  1  0.92503098  0.70064278  0.13911950  1
  Na  Na8  1  0.90884616  0.16152856  0.99803630  1
  Na  Na9  1  0.40884616  0.83847144  0.50196370  1
  Na  Na10  1  0.59115384  0.66152856  0.00196370  1
  Na  Na11  1  0.09115384  0.33847144  0.49803630  1
  Na  Na12  1  0.09115384  0.83847144  0.00196370  1
  Na  Na13  1  0.59115384  0.16152856  0.49803630  1
  Na  Na14  1  0.40884616  0.33847144  0.99803630  1
  Na  Na15  1  0.90884616  0.66152856  0.50196370  1
  Na  Na16  1  0.89564419  0.08293924  0.74830173  1
  Na  Na17  1  0.39564419  0.91706076  0.75169827  1
  Na  Na18  1  0.60435581  0.58293924  0.25169827  1
  Na  Na19  1  0.10435581  0.41706076  0.24830173  1
  Na  Na20  1  0.10435581  0.91706076  0.25169827  1
  Na  Na21  1  0.60435581  0.08293924  0.24830173  1
  Na  Na22  1  0.39564419  0.41706076  0.74830173  1
  Na  Na23  1  0.89564419  0.58293924  0.75169827  1
  Na  Na24  1  0.91843169  0.43940158  0.06539584  1
  Na  Na25  1  0.41843169  0.56059842  0.43460416  1
  Na  Na26  1  0.58156831  0.93940158  0.93460416  1
  Na  Na27  1  0.08156831  0.06059842  0.56539584  1
  Na  Na28  1  0.08156831  0.56059842  0.93460416  1
  Na  Na29  1  0.58156831  0.43940158  0.56539584  1
  Na  Na30  1  0.41843169  0.06059842  0.06539584  1
  Na  Na31  1  0.91843169  0.93940158  0.43460416  1
  Na  Na32  1  0.89593609  0.32806559  0.67121659  1
  Na  Na33  1  0.39593609  0.67193441  0.82878341  1
  Na  Na34  1  0.60406391  0.82806559  0.32878341  1
  Na  Na35  1  0.10406391  0.17193441  0.17121659  1
  Na  Na36  1  0.10406391  0.67193441  0.32878341  1
  Na  Na37  1  0.60406391  0.32806559  0.17121659  1
  Na  Na38  1  0.39593609  0.17193441  0.67121659  1
  Na  Na39  1  0.89593609  0.82806559  0.82878341  1
  Ga  Ga40  1  0.82584198  0.45986723  0.37587359  1
  Ga  Ga41  1  0.32584198  0.54013277  0.12412641  1
  Ga  Ga42  1  0.67415802  0.95986723  0.62412641  1
  Ga  Ga43  1  0.17415802  0.04013277  0.87587359  1
  Ga  Ga44  1  0.17415802  0.54013277  0.62412641  1
  Ga  Ga45  1  0.67415802  0.45986723  0.87587359  1
  Ga  Ga46  1  0.32584198  0.04013277  0.37587359  1
  Ga  Ga47  1  0.82584198  0.95986723  0.12412641  1
  O  O48  1  0.86058508  0.04910109  0.87899552  1
  O  O49  1  0.36058508  0.95089891  0.62100448  1
  O  O50  1  0.63941492  0.54910109  0.12100448  1
  O  O51  1  0.13941492  0.45089891  0.37899552  1
  O  O52  1  0.13941492  0.95089891  0.12100448  1
  O  O53  1  0.63941492  0.04910109  0.37899552  1
  O  O54  1  0.36058508  0.45089891  0.87899552  1
  O  O55  1  0.86058508  0.54910109  0.62100448  1
  O  O56  1  0.80434266  0.36838274  0.95466980  1
  O  O57  1  0.30434266  0.63161726  0.54533020  1
  O  O58  1  0.69565734  0.86838274  0.04533020  1
  O  O59  1  0.19565734  0.13161726  0.45466980  1
  O  O60  1  0.19565734  0.63161726  0.04533020  1
  O  O61  1  0.69565734  0.36838274  0.45466980  1
  O  O62  1  0.30434266  0.13161726  0.95466980  1
  O  O63  1  0.80434266  0.86838274  0.54533020  1
  O  O64  1  0.73303202  0.37362863  0.28777597  1
  O  O65  1  0.23303202  0.62637137  0.21222403  1
  O  O66  1  0.76696798  0.87362863  0.71222403  1
  O  O67  1  0.26696798  0.12637137  0.78777597  1
  O  O68  1  0.26696798  0.62637137  0.71222403  1
  O  O69  1  0.76696798  0.37362863  0.78777597  1
  O  O70  1  0.23303202  0.12637137  0.28777597  1
  O  O71  1  0.73303202  0.87362863  0.21222403  1
  O  O72  1  0.73775949  0.13633697  0.12516586  1
  O  O73  1  0.23775949  0.86366303  0.37483414  1
  O  O74  1  0.76224051  0.63633697  0.87483414  1
  O  O75  1  0.26224051  0.36366303  0.62516586  1
  O  O76  1  0.26224051  0.86366303  0.87483414  1
  O  O77  1  0.76224051  0.13633697  0.62516586  1
  O  O78  1  0.23775949  0.36366303  0.12516586  1
  O  O79  1  0.73775949  0.63633697  0.37483414  1
