# generated using pymatgen
data_BaLa2O4
_symmetry_space_group_name_H-M   'P 1'
_cell_length_a   3.70075545
_cell_length_b   10.74534479
_cell_length_c   12.66454589
_cell_angle_alpha   90.00000000
_cell_angle_beta   90.00000000
_cell_angle_gamma   90.00000000
_symmetry_Int_Tables_number   1
_chemical_formula_structural   BaLa2O4
_chemical_formula_sum   'Ba4 La8 O16'
_cell_volume   503.61698048
_cell_formula_units_Z   4
loop_
 _symmetry_equiv_pos_site_id
 _symmetry_equiv_pos_as_xyz
  1  'x, y, z'
loop_
 _atom_site_type_symbol
 _atom_site_label
 _atom_site_symmetry_multiplicity
 _atom_site_fract_x
 _atom_site_fract_y
 _atom_site_fract_z
 _atom_site_occupancy
  Ba  Ba0  1  0.75000000  0.24999860  0.35349506  1
  Ba  Ba1  1  0.25000000  0.25000140  0.85349506  1
  Ba  Ba2  1  0.75000000  0.74999860  0.14650494  1
  Ba  Ba3  1  0.25000000  0.75000140  0.64650494  1
  La  La4  1  0.75000000  0.07482684  0.61414735  1
  La  La5  1  0.75000000  0.08215281  0.11177048  1
  La  La6  1  0.25000000  0.41784719  0.61177048  1
  La  La7  1  0.25000000  0.42517316  0.11414735  1
  La  La8  1  0.75000000  0.57482684  0.88585265  1
  La  La9  1  0.75000000  0.58215281  0.38822952  1
  La  La10  1  0.25000000  0.91784719  0.88822952  1
  La  La11  1  0.25000000  0.92517316  0.38585265  1
  O  O12  1  0.25000000  0.01292515  0.71706260  1
  O  O13  1  0.75000000  0.06895135  0.92327342  1
  O  O14  1  0.25000000  0.12520609  0.48304781  1
  O  O15  1  0.25000000  0.21292886  0.17687173  1
  O  O16  1  0.75000000  0.28707114  0.67687173  1
  O  O17  1  0.75000000  0.37479391  0.98304781  1
  O  O18  1  0.25000000  0.43104865  0.42327342  1
  O  O19  1  0.75000000  0.48707485  0.21706260  1
  O  O20  1  0.25000000  0.51292515  0.78293740  1
  O  O21  1  0.75000000  0.56895135  0.57672658  1
  O  O22  1  0.25000000  0.62520609  0.01695219  1
  O  O23  1  0.25000000  0.71292886  0.32312827  1
  O  O24  1  0.75000000  0.78707114  0.82312827  1
  O  O25  1  0.75000000  0.87479391  0.51695219  1
  O  O26  1  0.25000000  0.93104865  0.07672658  1
  O  O27  1  0.75000000  0.98707485  0.28293740  1
