# generated using pymatgen
data_Li4FeP2O9
_symmetry_space_group_name_H-M   'P 1'
_cell_length_a   14.76014481
_cell_length_b   14.55764388
_cell_length_c   6.72058918
_cell_angle_alpha   90.00000000
_cell_angle_beta   90.00000000
_cell_angle_gamma   90.00000000
_symmetry_Int_Tables_number   1
_chemical_formula_structural   Li4FeP2O9
_chemical_formula_sum   'Li32 Fe8 P16 O72'
_cell_volume   1444.07270027
_cell_formula_units_Z   8
loop_
 _symmetry_equiv_pos_site_id
 _symmetry_equiv_pos_as_xyz
  1  'x, y, z'
loop_
 _atom_site_type_symbol
 _atom_site_label
 _atom_site_symmetry_multiplicity
 _atom_site_fract_x
 _atom_site_fract_y
 _atom_site_fract_z
 _atom_site_occupancy
  Li  Li0  1  0.00487364  0.00121408  0.77598093  1
  Li  Li1  1  0.00487364  0.49878592  0.27598093  1
  Li  Li2  1  0.02755737  0.24753204  0.24693260  1
  Li  Li3  1  0.02755737  0.25246796  0.74693260  1
  Li  Li4  1  0.12470063  0.62732350  0.00146985  1
  Li  Li5  1  0.12470063  0.87267650  0.50146985  1
  Li  Li6  1  0.22835836  0.02165649  0.19914413  1
  Li  Li7  1  0.22835836  0.47834351  0.69914413  1
  Li  Li8  1  0.27164164  0.52165649  0.19914413  1
  Li  Li9  1  0.27164164  0.97834351  0.69914413  1
  Li  Li10  1  0.37529937  0.12732350  0.00146985  1
  Li  Li11  1  0.37529937  0.37267650  0.50146985  1
  Li  Li12  1  0.47244263  0.74753204  0.24693260  1
  Li  Li13  1  0.47244263  0.75246796  0.74693260  1
  Li  Li14  1  0.49512636  0.50121408  0.77598093  1
  Li  Li15  1  0.49512636  0.99878592  0.27598093  1
  Li  Li16  1  0.50487364  0.00121408  0.72401907  1
  Li  Li17  1  0.50487364  0.49878592  0.22401907  1
  Li  Li18  1  0.52755737  0.24753204  0.25306740  1
  Li  Li19  1  0.52755737  0.25246796  0.75306740  1
  Li  Li20  1  0.62470063  0.62732350  0.49853015  1
  Li  Li21  1  0.62470063  0.87267650  0.99853015  1
  Li  Li22  1  0.72835836  0.02165649  0.30085587  1
  Li  Li23  1  0.72835836  0.47834351  0.80085587  1
  Li  Li24  1  0.77164164  0.52165649  0.30085587  1
  Li  Li25  1  0.77164164  0.97834351  0.80085587  1
  Li  Li26  1  0.87529937  0.12732350  0.49853015  1
  Li  Li27  1  0.87529937  0.37267650  0.99853015  1
  Li  Li28  1  0.97244263  0.74753204  0.25306740  1
  Li  Li29  1  0.97244263  0.75246796  0.75306740  1
  Li  Li30  1  0.99512636  0.50121408  0.72401907  1
  Li  Li31  1  0.99512636  0.99878592  0.22401907  1
  Fe  Fe32  1  0.23491024  0.24864719  0.74931908  1
  Fe  Fe33  1  0.23491024  0.25135281  0.24931908  1
  Fe  Fe34  1  0.26508976  0.74864719  0.74931908  1
  Fe  Fe35  1  0.26508976  0.75135281  0.24931908  1
  Fe  Fe36  1  0.73491024  0.24864719  0.75068092  1
  Fe  Fe37  1  0.73491024  0.25135281  0.25068092  1
  Fe  Fe38  1  0.76508976  0.74864719  0.75068092  1
  Fe  Fe39  1  0.76508976  0.75135281  0.25068092  1
  P  P40  1  0.11279211  0.10427525  0.49743228  1
  P  P41  1  0.11279211  0.39572475  0.99743228  1
  P  P42  1  0.11552729  0.86087791  0.00114792  1
  P  P43  1  0.11552729  0.63912209  0.50114792  1
  P  P44  1  0.38447271  0.13912209  0.50114792  1
  P  P45  1  0.38447271  0.36087791  0.00114792  1
  P  P46  1  0.38720789  0.60427525  0.49743228  1
  P  P47  1  0.38720789  0.89572475  0.99743228  1
  P  P48  1  0.61279211  0.10427525  0.00256772  1
  P  P49  1  0.61279211  0.39572475  0.50256772  1
  P  P50  1  0.61552729  0.63912209  0.99885208  1
  P  P51  1  0.61552729  0.86087791  0.49885208  1
  P  P52  1  0.88447271  0.13912209  0.99885208  1
  P  P53  1  0.88447271  0.36087791  0.49885208  1
  P  P54  1  0.88720789  0.60427525  0.00256772  1
  P  P55  1  0.88720789  0.89572475  0.50256772  1
  O  O56  1  0.00965421  0.08702525  0.48777059  1
  O  O57  1  0.00965421  0.41297475  0.98777059  1
  O  O58  1  0.04153324  0.78626592  0.00270539  1
  O  O59  1  0.04153324  0.71373408  0.50270539  1
  O  O60  1  0.08106143  0.53919394  0.51083820  1
  O  O61  1  0.08106143  0.96080606  0.01083820  1
  O  O62  1  0.12991552  0.16288267  0.68708489  1
  O  O63  1  0.12991552  0.33711733  0.18708489  1
  O  O64  1  0.13590332  0.15976338  0.30349471  1
  O  O65  1  0.13590332  0.34023662  0.80349471  1
  O  O66  1  0.17024135  0.01477200  0.49647599  1
  O  O67  1  0.17024135  0.48522800  0.99647599  1
  O  O68  1  0.17340280  0.64709745  0.30556533  1
  O  O69  1  0.17340280  0.85290255  0.80556533  1
  O  O70  1  0.17638331  0.64861637  0.69267386  1
  O  O71  1  0.17638331  0.85138363  0.19267386  1
  O  O72  1  0.24431428  0.20245250  0.00020011  1
  O  O73  1  0.24431428  0.29754750  0.50020011  1
  O  O74  1  0.25568572  0.70245250  0.00020011  1
  O  O75  1  0.25568572  0.79754750  0.50020011  1
  O  O76  1  0.32361669  0.14861637  0.69267386  1
  O  O77  1  0.32361669  0.35138363  0.19267386  1
  O  O78  1  0.32659720  0.14709745  0.30556533  1
  O  O79  1  0.32659720  0.35290255  0.80556533  1
  O  O80  1  0.32975865  0.51477200  0.49647599  1
  O  O81  1  0.32975865  0.98522800  0.99647599  1
  O  O82  1  0.36409668  0.65976338  0.30349471  1
  O  O83  1  0.36409668  0.84023662  0.80349471  1
  O  O84  1  0.37008448  0.66288267  0.68708489  1
  O  O85  1  0.37008448  0.83711733  0.18708489  1
  O  O86  1  0.41893857  0.03919394  0.51083820  1
  O  O87  1  0.41893857  0.46080606  0.01083820  1
  O  O88  1  0.45846676  0.21373408  0.50270539  1
  O  O89  1  0.45846676  0.28626592  0.00270539  1
  O  O90  1  0.49034579  0.58702525  0.48777059  1
  O  O91  1  0.49034579  0.91297475  0.98777059  1
  O  O92  1  0.50965421  0.08702525  0.01222941  1
  O  O93  1  0.50965421  0.41297475  0.51222941  1
  O  O94  1  0.54153324  0.71373408  0.99729461  1
  O  O95  1  0.54153324  0.78626592  0.49729461  1
  O  O96  1  0.58106143  0.53919394  0.98916180  1
  O  O97  1  0.58106143  0.96080606  0.48916180  1
  O  O98  1  0.62991552  0.16288267  0.81291511  1
  O  O99  1  0.62991552  0.33711733  0.31291511  1
  O  O100  1  0.63590332  0.15976338  0.19650529  1
  O  O101  1  0.63590332  0.34023662  0.69650529  1
  O  O102  1  0.67024135  0.01477200  0.00352401  1
  O  O103  1  0.67024135  0.48522800  0.50352401  1
  O  O104  1  0.67340280  0.64709745  0.19443467  1
  O  O105  1  0.67340280  0.85290255  0.69443467  1
  O  O106  1  0.67638331  0.64861637  0.80732614  1
  O  O107  1  0.67638331  0.85138363  0.30732614  1
  O  O108  1  0.74431428  0.20245250  0.49979989  1
  O  O109  1  0.74431428  0.29754750  0.99979989  1
  O  O110  1  0.75568572  0.70245250  0.49979989  1
  O  O111  1  0.75568572  0.79754750  0.99979989  1
  O  O112  1  0.82361669  0.14861637  0.80732614  1
  O  O113  1  0.82361669  0.35138363  0.30732614  1
  O  O114  1  0.82659720  0.14709745  0.19443467  1
  O  O115  1  0.82659720  0.35290255  0.69443467  1
  O  O116  1  0.82975865  0.51477200  0.00352401  1
  O  O117  1  0.82975865  0.98522800  0.50352401  1
  O  O118  1  0.86409668  0.65976338  0.19650529  1
  O  O119  1  0.86409668  0.84023662  0.69650529  1
  O  O120  1  0.87008448  0.66288267  0.81291511  1
  O  O121  1  0.87008448  0.83711733  0.31291511  1
  O  O122  1  0.91893857  0.03919394  0.98916180  1
  O  O123  1  0.91893857  0.46080606  0.48916180  1
  O  O124  1  0.95846676  0.21373408  0.99729461  1
  O  O125  1  0.95846676  0.28626592  0.49729461  1
  O  O126  1  0.99034579  0.58702525  0.01222941  1
  O  O127  1  0.99034579  0.91297475  0.51222941  1
