# generated using pymatgen
data_Cs2InCl5O
_symmetry_space_group_name_H-M   'P 1'
_cell_length_a   7.85827700
_cell_length_b   11.07223300
_cell_length_c   14.47963900
_cell_angle_alpha   90.00000000
_cell_angle_beta   90.00000000
_cell_angle_gamma   90.00000000
_symmetry_Int_Tables_number   1
_chemical_formula_structural   Cs2InCl5O
_chemical_formula_sum   'Cs8 In4 Cl20 O4'
_cell_volume   1259.85418827
_cell_formula_units_Z   4
loop_
 _symmetry_equiv_pos_site_id
 _symmetry_equiv_pos_as_xyz
  1  'x, y, z'
loop_
 _atom_site_type_symbol
 _atom_site_label
 _atom_site_symmetry_multiplicity
 _atom_site_fract_x
 _atom_site_fract_y
 _atom_site_fract_z
 _atom_site_occupancy
  Cs  Cs0  1  0.67142300  0.99407400  0.86199100  1
  Cs  Cs1  1  0.82857700  0.50592600  0.36199100  1
  Cs  Cs2  1  0.32857700  0.49407400  0.13800900  1
  Cs  Cs3  1  0.17142300  0.00592600  0.63800900  1
  Cs  Cs4  1  0.32857700  0.00592600  0.13800900  1
  Cs  Cs5  1  0.17142300  0.49407400  0.63800900  1
  Cs  Cs6  1  0.67142300  0.50592600  0.86199100  1
  Cs  Cs7  1  0.82857700  0.99407400  0.36199100  1
  In  In8  1  0.72144500  0.25000000  0.61175500  1
  In  In9  1  0.77855500  0.25000000  0.11175500  1
  In  In10  1  0.27855500  0.75000000  0.38824500  1
  In  In11  1  0.22144500  0.75000000  0.88824500  1
  Cl  Cl12  1  0.41994300  0.25000000  0.71153800  1
  Cl  Cl13  1  0.08005700  0.25000000  0.21153800  1
  Cl  Cl14  1  0.58005700  0.75000000  0.28846200  1
  Cl  Cl15  1  0.91994300  0.75000000  0.78846200  1
  Cl  Cl16  1  0.89544400  0.25000000  0.75322200  1
  Cl  Cl17  1  0.60455600  0.25000000  0.25322200  1
  Cl  Cl18  1  0.10455600  0.75000000  0.24677800  1
  Cl  Cl19  1  0.39544400  0.75000000  0.74677800  1
  Cl  Cl20  1  0.95489800  0.25000000  0.49507800  1
  Cl  Cl21  1  0.54510200  0.25000000  0.99507800  1
  Cl  Cl22  1  0.04510200  0.75000000  0.50492200  1
  Cl  Cl23  1  0.45489800  0.75000000  0.00492200  1
  Cl  Cl24  1  0.68155500  0.02441700  0.60129800  1
  Cl  Cl25  1  0.81844500  0.47558300  0.10129800  1
  Cl  Cl26  1  0.31844500  0.52441700  0.39870200  1
  Cl  Cl27  1  0.18155500  0.97558300  0.89870200  1
  Cl  Cl28  1  0.31844500  0.97558300  0.39870200  1
  Cl  Cl29  1  0.18155500  0.52441700  0.89870200  1
  Cl  Cl30  1  0.68155500  0.47558300  0.60129800  1
  Cl  Cl31  1  0.81844500  0.02441700  0.10129800  1
  O  O32  1  0.46927200  0.25000000  0.54688500  1
  O  O33  1  0.03072800  0.25000000  0.04688500  1
  O  O34  1  0.53072800  0.75000000  0.45311500  1
  O  O35  1  0.96927200  0.75000000  0.95311500  1
