# generated using pymatgen
data_Na3CuO3
_symmetry_space_group_name_H-M   'P 1'
_cell_length_a   9.06797850
_cell_length_b   9.06797850
_cell_length_c   4.43399115
_cell_angle_alpha   90.00000000
_cell_angle_beta   90.00000000
_cell_angle_gamma   90.00000000
_symmetry_Int_Tables_number   1
_chemical_formula_structural   Na3CuO3
_chemical_formula_sum   'Na12 Cu4 O12'
_cell_volume   364.59926218
_cell_formula_units_Z   4
loop_
 _symmetry_equiv_pos_site_id
 _symmetry_equiv_pos_as_xyz
  1  'x, y, z'
loop_
 _atom_site_type_symbol
 _atom_site_label
 _atom_site_symmetry_multiplicity
 _atom_site_fract_x
 _atom_site_fract_y
 _atom_site_fract_z
 _atom_site_occupancy
  Na  Na0  1  0.37392265  0.12861012  0.50000000  1
  Na  Na1  1  0.62861012  0.12607735  0.00000000  1
  Na  Na2  1  0.14738722  0.14738722  0.00000000  1
  Na  Na3  1  0.64738722  0.35261278  0.50000000  1
  Na  Na4  1  0.12861012  0.37392265  0.50000000  1
  Na  Na5  1  0.87392265  0.37138988  -0.00000000  1
  Na  Na6  1  0.12607735  0.62861012  -0.00000000  1
  Na  Na7  1  0.87138988  0.62607735  0.50000000  1
  Na  Na8  1  0.35261278  0.64738722  0.50000000  1
  Na  Na9  1  0.85261278  0.85261278  -0.00000000  1
  Na  Na10  1  0.37138988  0.87392265  -0.00000000  1
  Na  Na11  1  0.62607735  0.87138988  0.50000000  1
  Cu  Cu12  1  0.88935564  0.11064436  0.50000000  1
  Cu  Cu13  1  0.38935564  0.38935564  0.00000000  1
  Cu  Cu14  1  0.61064436  0.61064436  -0.00000000  1
  Cu  Cu15  1  0.11064436  0.88935564  0.50000000  1
  O  O16  1  0.09564523  0.09564523  0.50000000  1
  O  O17  1  0.68882578  0.10734607  0.50000000  1
  O  O18  1  0.39265393  0.18882578  0.00000000  1
  O  O19  1  0.89265393  0.31117422  0.50000000  1
  O  O20  1  0.18882578  0.39265393  -0.00000000  1
  O  O21  1  0.59564523  0.40435477  -0.00000000  1
  O  O22  1  0.40435477  0.59564523  -0.00000000  1
  O  O23  1  0.81117422  0.60734607  0.00000000  1
  O  O24  1  0.10734607  0.68882578  0.50000000  1
  O  O25  1  0.60734607  0.81117422  0.00000000  1
  O  O26  1  0.31117422  0.89265393  0.50000000  1
  O  O27  1  0.90435477  0.90435477  0.50000000  1
