# generated using pymatgen
data_PrH(SeO3)2
_symmetry_space_group_name_H-M   'P 1'
_cell_length_a   7.08154831
_cell_length_b   8.41853341
_cell_length_c   18.88425530
_cell_angle_alpha   90.00000000
_cell_angle_beta   90.00000000
_cell_angle_gamma   90.00000000
_symmetry_Int_Tables_number   1
_chemical_formula_structural   PrH(SeO3)2
_chemical_formula_sum   'Pr8 H8 Se16 O48'
_cell_volume   1125.80850471
_cell_formula_units_Z   8
loop_
 _symmetry_equiv_pos_site_id
 _symmetry_equiv_pos_as_xyz
  1  'x, y, z'
loop_
 _atom_site_type_symbol
 _atom_site_label
 _atom_site_symmetry_multiplicity
 _atom_site_fract_x
 _atom_site_fract_y
 _atom_site_fract_z
 _atom_site_occupancy
  Pr  Pr0  1  0.92004447  0.65781974  0.00037783  1
  Pr  Pr1  1  0.07995553  0.34218026  0.50037783  1
  Pr  Pr2  1  0.92004447  0.84218026  0.50037783  1
  Pr  Pr3  1  0.07995553  0.15781974  0.00037783  1
  Pr  Pr4  1  0.41786182  0.55664939  0.08640761  1
  Pr  Pr5  1  0.58213818  0.44335061  0.58640761  1
  Pr  Pr6  1  0.41786182  0.94335061  0.58640761  1
  Pr  Pr7  1  0.58213818  0.05664939  0.08640761  1
  H  H8  1  0.70660469  0.33095499  0.29788582  1
  H  H9  1  0.29339531  0.66904501  0.79788582  1
  H  H10  1  0.70660469  0.16904501  0.79788582  1
  H  H11  1  0.29339531  0.83095499  0.29788582  1
  H  H12  1  0.22682884  0.90879886  0.78503741  1
  H  H13  1  0.77317116  0.09120114  0.28503741  1
  H  H14  1  0.22682884  0.59120114  0.28503741  1
  H  H15  1  0.77317116  0.40879886  0.78503741  1
  Se  Se16  1  0.93031952  0.40858185  0.14154020  1
  Se  Se17  1  0.06968048  0.59141815  0.64154020  1
  Se  Se18  1  0.93031952  0.09141815  0.64154020  1
  Se  Se19  1  0.06968048  0.90858185  0.14154020  1
  Se  Se20  1  0.42008688  0.33228990  0.23909137  1
  Se  Se21  1  0.57991312  0.66771010  0.73909137  1
  Se  Se22  1  0.42008688  0.16771010  0.73909137  1
  Se  Se23  1  0.57991312  0.83228990  0.23909137  1
  Se  Se24  1  0.94401756  0.87250058  0.84963945  1
  Se  Se25  1  0.05598244  0.12749942  0.34963945  1
  Se  Se26  1  0.94401756  0.62749942  0.34963945  1
  Se  Se27  1  0.05598244  0.37250058  0.84963945  1
  Se  Se28  1  0.43634803  0.80967603  0.94645801  1
  Se  Se29  1  0.56365197  0.19032397  0.44645801  1
  Se  Se30  1  0.43634803  0.69032397  0.44645801  1
  Se  Se31  1  0.56365197  0.30967603  0.94645801  1
  O  O32  1  0.76521155  0.53815705  0.10927073  1
  O  O33  1  0.23478845  0.46184295  0.60927073  1
  O  O34  1  0.76521155  0.96184295  0.60927073  1
  O  O35  1  0.23478845  0.03815705  0.10927073  1
  O  O36  1  0.09544819  0.42960719  0.07419930  1
  O  O37  1  0.90455181  0.57039281  0.57419930  1
  O  O38  1  0.09544819  0.07039281  0.57419930  1
  O  O39  1  0.90455181  0.92960719  0.07419930  1
  O  O40  1  0.86208978  0.22462424  0.11650176  1
  O  O41  1  0.13791022  0.77537576  0.61650176  1
  O  O42  1  0.86208978  0.27537576  0.61650176  1
  O  O43  1  0.13791022  0.72462424  0.11650176  1
  O  O44  1  0.48765155  0.29608200  0.15523394  1
  O  O45  1  0.51234845  0.70391800  0.65523394  1
  O  O46  1  0.48765155  0.20391800  0.65523394  1
  O  O47  1  0.51234845  0.79608200  0.15523394  1
  O  O48  1  0.31512266  0.50819919  0.22208287  1
  O  O49  1  0.68487734  0.49180081  0.72208287  1
  O  O50  1  0.31512266  0.99180081  0.72208287  1
  O  O51  1  0.68487734  0.00819919  0.22208287  1
  O  O52  1  0.62784363  0.41706914  0.27680896  1
  O  O53  1  0.37215637  0.58293086  0.77680896  1
  O  O54  1  0.62784363  0.08293086  0.77680896  1
  O  O55  1  0.37215637  0.91706914  0.27680896  1
  O  O56  1  0.18330912  0.83166988  0.82385773  1
  O  O57  1  0.81669088  0.16833012  0.32385773  1
  O  O58  1  0.18330912  0.66833012  0.32385773  1
  O  O59  1  0.81669088  0.33166988  0.82385773  1
  O  O60  1  0.97292188  0.91834428  0.93595917  1
  O  O61  1  0.02707812  0.08165572  0.43595917  1
  O  O62  1  0.97292188  0.58165572  0.43595917  1
  O  O63  1  0.02707812  0.41834428  0.93595917  1
  O  O64  1  0.86963383  0.68569910  0.86186721  1
  O  O65  1  0.13036617  0.31430090  0.36186721  1
  O  O66  1  0.86963383  0.81430090  0.36186721  1
  O  O67  1  0.13036617  0.18569910  0.86186721  1
  O  O68  1  0.36390712  0.99318242  0.97055615  1
  O  O69  1  0.63609288  0.00681758  0.47055615  1
  O  O70  1  0.36390712  0.50681758  0.47055615  1
  O  O71  1  0.63609288  0.49318242  0.97055615  1
  O  O72  1  0.26852988  0.68144994  0.97779226  1
  O  O73  1  0.73147012  0.31855006  0.47779226  1
  O  O74  1  0.26852988  0.81855006  0.47779226  1
  O  O75  1  0.73147012  0.18144994  0.97779226  1
  O  O76  1  0.59665527  0.78812839  0.01577323  1
  O  O77  1  0.40334473  0.21187161  0.51577323  1
  O  O78  1  0.59665527  0.71187161  0.51577323  1
  O  O79  1  0.40334473  0.28812839  0.01577323  1
