# generated using pymatgen
data_Na3YH6(CO4)3
_symmetry_space_group_name_H-M   'P 1'
_cell_length_a   5.89325566
_cell_length_b   9.92876583
_cell_length_c   17.08112170
_cell_angle_alpha   90.00000000
_cell_angle_beta   90.00000000
_cell_angle_gamma   90.00000000
_symmetry_Int_Tables_number   1
_chemical_formula_structural   Na3YH6(CO4)3
_chemical_formula_sum   'Na12 Y4 H24 C12 O48'
_cell_volume   999.46349641
_cell_formula_units_Z   4
loop_
 _symmetry_equiv_pos_site_id
 _symmetry_equiv_pos_as_xyz
  1  'x, y, z'
loop_
 _atom_site_type_symbol
 _atom_site_label
 _atom_site_symmetry_multiplicity
 _atom_site_fract_x
 _atom_site_fract_y
 _atom_site_fract_z
 _atom_site_occupancy
  Na  Na0  1  0.91212017  0.12487307  0.95271818  1
  Na  Na1  1  0.41212017  0.87512693  0.04728182  1
  Na  Na2  1  0.41212017  0.62487307  0.54728182  1
  Na  Na3  1  0.91212017  0.37512693  0.45271818  1
  Na  Na4  1  0.40417904  0.36039388  0.86262693  1
  Na  Na5  1  0.90417904  0.63960612  0.13737307  1
  Na  Na6  1  0.90417904  0.86039388  0.63737307  1
  Na  Na7  1  0.40417904  0.13960612  0.36262693  1
  Na  Na8  1  0.40925631  0.01817526  0.58210719  1
  Na  Na9  1  0.90925631  0.98182474  0.41789281  1
  Na  Na10  1  0.90925631  0.51817526  0.91789281  1
  Na  Na11  1  0.40925631  0.48182474  0.08210719  1
  Y  Y12  1  0.68459867  0.32204450  0.66162763  1
  Y  Y13  1  0.18459867  0.67795550  0.33837237  1
  Y  Y14  1  0.18459867  0.82204450  0.83837237  1
  Y  Y15  1  0.68459867  0.17795550  0.16162763  1
  H  H16  1  0.44564821  0.30050514  0.51027554  1
  H  H17  1  0.94564821  0.69949486  0.48972446  1
  H  H18  1  0.94564821  0.80050514  0.98972446  1
  H  H19  1  0.44564821  0.19949486  0.01027554  1
  H  H20  1  0.23827794  0.26967707  0.56778048  1
  H  H21  1  0.73827794  0.73032293  0.43221952  1
  H  H22  1  0.73827794  0.76967707  0.93221952  1
  H  H23  1  0.23827794  0.23032293  0.06778048  1
  H  H24  1  0.23518575  0.21178744  0.73353154  1
  H  H25  1  0.73518575  0.78821256  0.26646846  1
  H  H26  1  0.73518575  0.71178744  0.76646846  1
  H  H27  1  0.23518575  0.28821256  0.23353154  1
  H  H28  1  0.43417066  0.11671257  0.76170227  1
  H  H29  1  0.93417066  0.88328743  0.23829773  1
  H  H30  1  0.93417066  0.61671257  0.73829773  1
  H  H31  1  0.43417066  0.38328743  0.26170227  1
  H  H32  1  0.23688700  0.48511354  0.68086622  1
  H  H33  1  0.73688700  0.51488646  0.31913378  1
  H  H34  1  0.73688700  0.98511354  0.81913378  1
  H  H35  1  0.23688700  0.01488646  0.18086622  1
  H  H36  1  0.43521486  0.57062605  0.71869474  1
  H  H37  1  0.93521486  0.42937395  0.28130526  1
  H  H38  1  0.93521486  0.07062605  0.78130526  1
  H  H39  1  0.43521486  0.92937395  0.21869474  1
  C  C40  1  0.41132943  0.05430980  0.90077806  1
  C  C41  1  0.91132943  0.94569020  0.09922194  1
  C  C42  1  0.91132943  0.55430980  0.59922194  1
  C  C43  1  0.41132943  0.44569020  0.40077806  1
  C  C44  1  0.91212329  0.30850720  0.80780295  1
  C  C45  1  0.41212329  0.69149280  0.19219705  1
  C  C46  1  0.41212329  0.80850720  0.69219705  1
  C  C47  1  0.91212329  0.19149280  0.30780295  1
  C  C48  1  0.91615713  0.11720345  0.57944005  1
  C  C49  1  0.41615713  0.88279655  0.42055995  1
  C  C50  1  0.41615713  0.61720345  0.92055995  1
  C  C51  1  0.91615713  0.38279655  0.07944005  1
  O  O52  1  0.96274187  0.23197348  0.74696328  1
  O  O53  1  0.46274187  0.76802652  0.25303672  1
  O  O54  1  0.46274187  0.73197348  0.75303672  1
  O  O55  1  0.96274187  0.26802652  0.24696328  1
  O  O56  1  0.03218904  0.02609863  0.54613160  1
  O  O57  1  0.53218904  0.97390137  0.45386840  1
  O  O58  1  0.53218904  0.52609863  0.95386840  1
  O  O59  1  0.03218904  0.47390137  0.04613160  1
  O  O60  1  0.95638014  0.24603772  0.56833504  1
  O  O61  1  0.45638014  0.75396228  0.43166496  1
  O  O62  1  0.45638014  0.74603772  0.93166496  1
  O  O63  1  0.95638014  0.25396228  0.06833504  1
  O  O64  1  0.75285893  0.08948558  0.62760643  1
  O  O65  1  0.25285893  0.91051442  0.37239357  1
  O  O66  1  0.25285893  0.58948558  0.87239357  1
  O  O67  1  0.75285893  0.41051442  0.12760643  1
  O  O68  1  0.96071579  0.49612242  0.66610537  1
  O  O69  1  0.46071579  0.50387758  0.33389463  1
  O  O70  1  0.46071579  0.99612242  0.83389463  1
  O  O71  1  0.96071579  0.00387758  0.16610537  1
  O  O72  1  0.74368196  0.38952124  0.79809632  1
  O  O73  1  0.24368196  0.61047876  0.20190368  1
  O  O74  1  0.24368196  0.88952124  0.70190368  1
  O  O75  1  0.74368196  0.11047876  0.29809632  1
  O  O76  1  0.02444551  0.30068597  0.87096998  1
  O  O77  1  0.52444551  0.69931403  0.12903002  1
  O  O78  1  0.52444551  0.80068597  0.62903002  1
  O  O79  1  0.02444551  0.19931403  0.37096998  1
  O  O80  1  0.52236932  0.15760042  0.92332030  1
  O  O81  1  0.02236932  0.84239958  0.07667970  1
  O  O82  1  0.02236932  0.65760042  0.57667970  1
  O  O83  1  0.52236932  0.34239958  0.42332030  1
  O  O84  1  0.24804276  0.00128296  0.94028669  1
  O  O85  1  0.74804276  0.99871704  0.05971331  1
  O  O86  1  0.74804276  0.50128296  0.55971331  1
  O  O87  1  0.24804276  0.49871704  0.44028669  1
  O  O88  1  0.40667316  0.27209782  0.56498131  1
  O  O89  1  0.90667316  0.72790218  0.43501869  1
  O  O90  1  0.90667316  0.77209782  0.93501869  1
  O  O91  1  0.40667316  0.22790218  0.06498131  1
  O  O92  1  0.40283750  0.19889992  0.73114974  1
  O  O93  1  0.90283750  0.80110008  0.26885026  1
  O  O94  1  0.90283750  0.69889992  0.76885026  1
  O  O95  1  0.40283750  0.30110008  0.23114974  1
  O  O96  1  0.40431555  0.48886970  0.68742607  1
  O  O97  1  0.90431555  0.51113030  0.31257393  1
  O  O98  1  0.90431555  0.98886970  0.81257393  1
  O  O99  1  0.40431555  0.01113030  0.18742607  1
