# generated using pymatgen
data_NaFePO4
_symmetry_space_group_name_H-M   'P 1'
_cell_length_a   4.93757206
_cell_length_b   6.16440087
_cell_length_c   10.32143875
_cell_angle_alpha   90.00000000
_cell_angle_beta   90.00000000
_cell_angle_gamma   90.00000000
_symmetry_Int_Tables_number   1
_chemical_formula_structural   NaFePO4
_chemical_formula_sum   'Na4 Fe4 P4 O16'
_cell_volume   314.15542203
_cell_formula_units_Z   4
loop_
 _symmetry_equiv_pos_site_id
 _symmetry_equiv_pos_as_xyz
  1  'x, y, z'
loop_
 _atom_site_type_symbol
 _atom_site_label
 _atom_site_symmetry_multiplicity
 _atom_site_fract_x
 _atom_site_fract_y
 _atom_site_fract_z
 _atom_site_occupancy
  Na  Na0  1  0.00000000  -0.00000000  0.00000000  1
  Na  Na1  1  0.50000100  -0.00000000  0.50000000  1
  Na  Na2  1  0.00000000  0.49999900  0.00000000  1
  Na  Na3  1  0.50000100  0.49999900  0.50000000  1
  Fe  Fe4  1  0.02143576  0.75000000  0.71306639  1
  Fe  Fe5  1  0.47856324  0.75000000  0.21306539  1
  Fe  Fe6  1  0.97856324  0.25000000  0.28693361  1
  Fe  Fe7  1  0.52143676  0.25000000  0.78693361  1
  P  P8  1  0.55988846  0.75000000  0.89227283  1
  P  P9  1  0.94011154  0.75000000  0.39227183  1
  P  P10  1  0.44011254  0.25000000  0.10772717  1
  P  P11  1  0.05988746  0.25000000  0.60772717  1
  O  O12  1  0.74812927  0.25000000  0.11168623  1
  O  O13  1  0.18780679  0.44780807  0.67821668  1
  O  O14  1  0.68780679  0.55219193  0.82178332  1
  O  O15  1  0.81219321  0.94780707  0.32178332  1
  O  O16  1  0.31219421  0.05219293  0.17821768  1
  O  O17  1  0.81219321  0.55219193  0.32178332  1
  O  O18  1  0.31219421  0.44780807  0.17821768  1
  O  O19  1  0.18780679  0.05219293  0.67821668  1
  O  O20  1  0.25187073  0.75000000  0.88831577  1
  O  O21  1  0.75187073  0.25000000  0.61168423  1
  O  O22  1  0.68780679  0.94780707  0.82178332  1
  O  O23  1  0.24813027  0.75000000  0.38831477  1
  O  O24  1  0.66424999  0.75000000  0.03246298  1
  O  O25  1  0.33574901  0.25000000  0.96753602  1
  O  O26  1  0.16424999  0.25000000  0.46753702  1
  O  O27  1  0.83575001  0.75000000  0.53246398  1
