# generated using pymatgen
data_Fe3Pb8F24
_symmetry_space_group_name_H-M   'P 1'
_cell_length_a   5.55781871
_cell_length_b   9.39622516
_cell_length_c   10.42122124
_cell_angle_alpha   105.27159624
_cell_angle_beta   105.29753593
_cell_angle_gamma   89.44070432
_symmetry_Int_Tables_number   1
_chemical_formula_structural   Fe3Pb8F24
_chemical_formula_sum   'Fe3 Pb8 F24'
_cell_volume   505.35890343
_cell_formula_units_Z   1
loop_
 _symmetry_equiv_pos_site_id
 _symmetry_equiv_pos_as_xyz
  1  'x, y, z'
loop_
 _atom_site_type_symbol
 _atom_site_label
 _atom_site_symmetry_multiplicity
 _atom_site_fract_x
 _atom_site_fract_y
 _atom_site_fract_z
 _atom_site_occupancy
  Fe  Fe0  1  -0.00000000  0.00000000  0.00000000  1
  Fe  Fe1  1  0.45362198  0.25194367  0.90891032  1
  Fe  Fe2  1  0.54637802  0.74805633  0.09108968  1
  Pb  Pb3  1  0.27151560  0.36265178  0.55538829  1
  Pb  Pb4  1  0.72848440  0.63734822  0.44461171  1
  Pb  Pb5  1  0.35929047  0.82841348  0.73555423  1
  Pb  Pb6  1  0.64070953  0.17158652  0.26444577  1
  Pb  Pb7  1  0.17469803  0.89671405  0.35437772  1
  Pb  Pb8  1  0.82530197  0.10328595  0.64562228  1
  Pb  Pb9  1  0.91175214  0.56332591  0.82966413  1
  Pb  Pb10  1  0.08824786  0.43667409  0.17033587  1
  F  F11  1  0.02000302  0.87517996  0.54866615  1
  F  F12  1  0.97999698  0.12482004  0.45133385  1
  F  F13  1  0.57015323  0.60974389  0.64037994  1
  F  F14  1  0.42984677  0.39025611  0.35962006  1
  F  F15  1  0.07618825  0.61603296  0.63091588  1
  F  F16  1  0.92381175  0.38396704  0.36908412  1
  F  F17  1  0.29997626  0.13292313  0.71940896  1
  F  F18  1  0.70002374  0.86707687  0.28059104  1
  F  F19  1  0.83730626  0.62940099  0.08557573  1
  F  F20  1  0.16269374  0.37059901  0.91442427  1
  F  F21  1  0.11313477  0.64194204  0.35959891  1
  F  F22  1  0.88686523  0.35805796  0.64040109  1
  F  F23  1  0.25273602  0.87626680  0.09119428  1
  F  F24  1  0.74726398  0.12373320  0.90880572  1
  F  F25  1  0.71488349  0.89571193  0.02896849  1
  F  F26  1  0.28511651  0.10428807  0.97103151  1
  F  F27  1  0.39698466  0.62460834  0.17655400  1
  F  F28  1  0.60301534  0.37539166  0.82344600  1
  F  F29  1  0.39010989  0.65845812  0.89711183  1
  F  F30  1  0.60989011  0.34154188  0.10288817  1
  F  F31  1  0.04617930  0.13620884  0.18188804  1
  F  F32  1  0.95382070  0.86379116  0.81811196  1
  F  F33  1  0.51586812  0.86806820  0.54406421  1
  F  F34  1  0.48413188  0.13193180  0.45593579  1
