# generated using pymatgen
data_Li4CoO4
_symmetry_space_group_name_H-M   'P 1'
_cell_length_a   5.25848500
_cell_length_b   9.21117100
_cell_length_c   15.98984335
_cell_angle_alpha   88.02669158
_cell_angle_beta   90.00000000
_cell_angle_gamma   90.00000000
_symmetry_Int_Tables_number   1
_chemical_formula_structural   Li4CoO4
_chemical_formula_sum   'Li32 Co8 O32'
_cell_volume   774.03762217
_cell_formula_units_Z   8
loop_
 _symmetry_equiv_pos_site_id
 _symmetry_equiv_pos_as_xyz
  1  'x, y, z'
loop_
 _atom_site_type_symbol
 _atom_site_label
 _atom_site_symmetry_multiplicity
 _atom_site_fract_x
 _atom_site_fract_y
 _atom_site_fract_z
 _atom_site_occupancy
  Li  Li0  1  0.40459200  0.15204200  0.64856400  1
  Li  Li1  1  0.59540800  0.15204200  0.14856400  1
  Li  Li2  1  0.14177700  0.19366000  0.83837700  1
  Li  Li3  1  0.85822300  0.19366000  0.33837700  1
  Li  Li4  1  0.80011300  0.24871600  0.71530200  1
  Li  Li5  1  0.19988700  0.24871600  0.21530200  1
  Li  Li6  1  0.69616200  0.27973800  0.51650300  1
  Li  Li7  1  0.30383800  0.27973800  0.01650300  1
  Li  Li8  1  0.38455900  0.38727300  0.75714700  1
  Li  Li9  1  0.61544100  0.38727300  0.25714700  1
  Li  Li10  1  0.12294300  0.35990400  0.58700700  1
  Li  Li11  1  0.87705700  0.35990400  0.08700700  1
  Li  Li12  1  0.68346300  0.54707100  0.94531700  1
  Li  Li13  1  0.31653700  0.54707100  0.44531700  1
  Li  Li14  1  0.14534700  0.58206900  0.25398700  1
  Li  Li15  1  0.85465300  0.58206900  0.75398700  1
  Li  Li16  1  0.13751000  0.67654800  0.99751700  1
  Li  Li17  1  0.86249000  0.67654800  0.49751700  1
  Li  Li18  1  0.36692600  0.68237000  0.82464400  1
  Li  Li19  1  0.63307400  0.68237000  0.32464400  1
  Li  Li20  1  0.19151300  0.70120100  0.64012400  1
  Li  Li21  1  0.80848700  0.70120100  0.14012400  1
  Li  Li22  1  0.66342200  0.80606500  0.64868500  1
  Li  Li23  1  0.33657800  0.80606500  0.14868500  1
  Li  Li24  1  0.85234600  0.83911100  0.82903200  1
  Li  Li25  1  0.14765400  0.83911100  0.32903200  1
  Li  Li26  1  0.64052700  0.85725800  0.00547200  1
  Li  Li27  1  0.35947300  0.85725800  0.50547200  1
  Li  Li28  1  0.70216800  0.94530900  0.25828800  1
  Li  Li29  1  0.29783200  0.94530900  0.75828800  1
  Li  Li30  1  0.83300800  0.98102100  0.44807200  1
  Li  Li31  1  0.16699200  0.98102100  0.94807200  1
  Co  Co32  1  0.58967900  0.06503000  0.86408100  1
  Co  Co33  1  0.41032100  0.06503000  0.36408100  1
  Co  Co34  1  0.09871800  0.46453100  0.87924100  1
  Co  Co35  1  0.90128200  0.46453100  0.37924100  1
  Co  Co36  1  0.59980300  0.53631100  0.61649700  1
  Co  Co37  1  0.40019700  0.53631100  0.11649700  1
  Co  Co38  1  0.94301800  0.96883100  0.12328700  1
  Co  Co39  1  0.05698200  0.96883100  0.62328700  1
  O  O40  1  0.92701700  0.03803000  0.86512900  1
  O  O41  1  0.07298300  0.03803000  0.36512900  1
  O  O42  1  0.53569700  0.15973400  0.27044800  1
  O  O43  1  0.46430300  0.15973400  0.77044800  1
  O  O44  1  0.00522800  0.15918100  0.62989900  1
  O  O45  1  0.99477200  0.15918100  0.12989900  1
  O  O46  1  0.42251300  0.12979800  0.95073400  1
  O  O47  1  0.57748700  0.12979800  0.45073400  1
  O  O48  1  0.00544700  0.38602000  0.47502200  1
  O  O49  1  0.99455300  0.38602000  0.97502200  1
  O  O50  1  0.49805600  0.34881500  0.11897300  1
  O  O51  1  0.50194400  0.34881500  0.61897300  1
  O  O52  1  0.00505300  0.37518400  0.78430100  1
  O  O53  1  0.99494700  0.37518400  0.28430100  1
  O  O54  1  0.43686200  0.48129200  0.86960200  1
  O  O55  1  0.56313800  0.48129200  0.36960200  1
  O  O56  1  0.93846600  0.55477500  0.62047500  1
  O  O57  1  0.06153400  0.55477500  0.12047500  1
  O  O58  1  0.50766500  0.62737900  0.20997600  1
  O  O59  1  0.49233500  0.62737900  0.70997600  1
  O  O60  1  0.97351200  0.65128600  0.87374800  1
  O  O61  1  0.02648800  0.65128600  0.37374800  1
  O  O62  1  0.51715300  0.65640100  0.03327000  1
  O  O63  1  0.48284700  0.65640100  0.53327000  1
  O  O64  1  0.96828200  0.86306200  0.53533300  1
  O  O65  1  0.03171800  0.86306200  0.03533300  1
  O  O66  1  0.52480600  0.87381400  0.35933000  1
  O  O67  1  0.47519400  0.87381400  0.85933000  1
  O  O68  1  0.02591400  0.84808400  0.21266700  1
  O  O69  1  0.97408600  0.84808400  0.71266700  1
  O  O70  1  0.59818300  0.94451100  0.12677200  1
  O  O71  1  0.40181700  0.94451100  0.62677200  1
