# generated using pymatgen
data_LiTmO2
_symmetry_space_group_name_H-M   'P 1'
_cell_length_a   4.36002379
_cell_length_b   5.90042334
_cell_length_c   4.36002379
_cell_angle_alpha   68.31723299
_cell_angle_beta   90.00000000
_cell_angle_gamma   111.68276701
_symmetry_Int_Tables_number   1
_chemical_formula_structural   LiTmO2
_chemical_formula_sum   'Li2 Tm2 O4'
_cell_volume   95.63667469
_cell_formula_units_Z   2
loop_
 _symmetry_equiv_pos_site_id
 _symmetry_equiv_pos_as_xyz
  1  'x, y, z'
loop_
 _atom_site_type_symbol
 _atom_site_label
 _atom_site_symmetry_multiplicity
 _atom_site_fract_x
 _atom_site_fract_y
 _atom_site_fract_z
 _atom_site_occupancy
  Li  Li0  1  0.25000000  0.50000000  0.25000000  1
  Li  Li1  1  0.50000000  0.00000000  0.50000000  1
  Tm  Tm2  1  0.00000000  0.00000000  -0.00000000  1
  Tm  Tm3  1  0.75000000  0.50000000  0.75000000  1
  O  O4  1  0.77615947  0.55231793  0.22384053  1
  O  O5  1  0.22384053  0.44768207  0.77615947  1
  O  O6  1  0.52615947  0.05231793  0.97384053  1
  O  O7  1  0.97384053  0.94768207  0.52615947  1
