# generated using pymatgen
data_Ho2SO2
_symmetry_space_group_name_H-M   'P 1'
_cell_length_a   3.75042379
_cell_length_b   3.75042215
_cell_length_c   13.24272914
_cell_angle_alpha   89.99997563
_cell_angle_beta   89.99998694
_cell_angle_gamma   120.00001850
_symmetry_Int_Tables_number   1
_chemical_formula_structural   Ho2SO2
_chemical_formula_sum   'Ho4 S2 O4'
_cell_volume   161.31269493
_cell_formula_units_Z   2
loop_
 _symmetry_equiv_pos_site_id
 _symmetry_equiv_pos_as_xyz
  1  'x, y, z'
loop_
 _atom_site_type_symbol
 _atom_site_label
 _atom_site_symmetry_multiplicity
 _atom_site_fract_x
 _atom_site_fract_y
 _atom_site_fract_z
 _atom_site_occupancy
  Ho  Ho0  1  0.33333489  0.66670477  0.89252770  1
  Ho  Ho1  1  0.33333362  0.66667594  0.60747093  1
  Ho  Ho2  1  0.66666630  0.33334131  0.39252941  1
  Ho  Ho3  1  0.66666507  0.33336661  0.10747120  1
  S  S4  1  0.99999851  0.00001467  0.25000103  1
  S  S5  1  0.00000153  0.00001879  0.74999903  1
  O  O6  1  0.33333288  0.66669742  0.06449762  1
  O  O7  1  0.33333290  0.66667368  0.43550270  1
  O  O8  1  0.66666745  0.33336681  0.93550152  1
  O  O9  1  0.66666686  0.33334201  0.56449786  1
