# generated using pymatgen
data_Na2SnO3
_symmetry_space_group_name_H-M   'P 1'
_cell_length_a   10.57207495
_cell_length_b   10.07581940
_cell_length_c   5.61434486
_cell_angle_alpha   79.15711649
_cell_angle_beta   69.39726245
_cell_angle_gamma   31.44166027
_symmetry_Int_Tables_number   1
_chemical_formula_structural   Na2SnO3
_chemical_formula_sum   'Na8 Sn4 O12'
_cell_volume   284.20963789
_cell_formula_units_Z   4
loop_
 _symmetry_equiv_pos_site_id
 _symmetry_equiv_pos_as_xyz
  1  'x, y, z'
loop_
 _atom_site_type_symbol
 _atom_site_label
 _atom_site_symmetry_multiplicity
 _atom_site_fract_x
 _atom_site_fract_y
 _atom_site_fract_z
 _atom_site_occupancy
  Na  Na0  1  0.99501171  0.99489136  0.50469323  1
  Na  Na1  1  0.42244894  0.42225511  0.57727901  1
  Na  Na2  1  0.82753822  0.82775570  0.67273411  1
  Na  Na3  1  0.25498697  0.25510640  0.74530254  1
  Na  Na4  1  0.74522895  0.74463806  0.25482985  1
  Na  Na5  1  0.67236664  0.67242592  0.82751442  1
  Na  Na6  1  0.57765096  0.57755674  0.42248032  1
  Na  Na7  1  0.50477327  0.50536028  0.99518094  1
  Sn  Sn8  1  0.91570363  0.91570065  0.08423818  1
  Sn  Sn9  1  0.33429544  0.33429406  0.16574953  1
  Sn  Sn10  1  0.16571893  0.16568736  0.33433441  1
  Sn  Sn11  1  0.08428199  0.08430722  0.91567010  1
  O  O12  1  0.15291695  0.66420738  0.30769305  1
  O  O13  1  0.66413246  0.15300795  0.87516514  1
  O  O14  1  0.09705097  0.58582437  0.94232589  1
  O  O15  1  0.58586432  0.09699511  0.37481539  1
  O  O16  1  0.04044750  0.45956451  0.45963575  1
  O  O17  1  0.45960742  0.04038817  0.04046025  1
  O  O18  1  0.37483990  0.94230088  0.58584637  1
  O  O19  1  0.94234976  0.37476704  0.09702952  1
  O  O20  1  0.87517703  0.30769927  0.66414543  1
  O  O21  1  0.30766498  0.87522517  0.15296307  1
  O  O22  1  0.20955562  0.79044051  0.79036919  1
  O  O23  1  0.79038743  0.20960079  0.20954431  1
