# generated using pymatgen
data_LuGaO3
_symmetry_space_group_name_H-M   'P 1'
_cell_length_a   5.90261744
_cell_length_b   5.90261585
_cell_length_c   11.57413725
_cell_angle_alpha   89.99999338
_cell_angle_beta   89.99995016
_cell_angle_gamma   119.99938731
_symmetry_Int_Tables_number   1
_chemical_formula_structural   LuGaO3
_chemical_formula_sum   'Lu6 Ga6 O18'
_cell_volume   349.22964111
_cell_formula_units_Z   6
loop_
 _symmetry_equiv_pos_site_id
 _symmetry_equiv_pos_as_xyz
  1  'x, y, z'
loop_
 _atom_site_type_symbol
 _atom_site_label
 _atom_site_symmetry_multiplicity
 _atom_site_fract_x
 _atom_site_fract_y
 _atom_site_fract_z
 _atom_site_occupancy
  Lu  Lu0  1  0.33333332  0.66666497  0.23195969  1
  Lu  Lu1  1  -0.00000050  0.00000213  0.27298811  1
  Lu  Lu2  1  0.99999538  -0.00000355  0.77299083  1
  Lu  Lu3  1  0.33333156  0.66666284  0.73195965  1
  Lu  Lu4  1  0.66666829  0.33333259  0.73195988  1
  Lu  Lu5  1  0.66666839  0.33333326  0.23195931  1
  Ga  Ga6  1  -0.00000068  0.66605515  0.49884447  1
  Ga  Ga7  1  0.00000023  0.33394341  0.99884667  1
  Ga  Ga8  1  0.33394687  0.33394718  0.49884424  1
  Ga  Ga9  1  0.66605415  0.66605306  0.99884672  1
  Ga  Ga10  1  0.33394417  0.00000009  0.99884516  1
  Ga  Ga11  1  0.66605462  -0.00000104  0.49884406  1
  O  O12  1  -0.00000060  0.69478637  0.66331082  1
  O  O13  1  -0.00000554  0.63859760  0.33570979  1
  O  O14  1  0.00000221  0.36140204  0.83571293  1
  O  O15  1  -0.00000068  0.30521236  0.16331341  1
  O  O16  1  0.33333155  0.66666418  0.01916189  1
  O  O17  1  0.00000259  0.00000476  0.47444858  1
  O  O18  1  -0.00000031  -0.00000087  0.97446087  1
  O  O19  1  0.33333257  0.66666936  0.51915060  1
  O  O20  1  0.30520855  0.30521323  0.66330667  1
  O  O21  1  0.36140630  0.36140070  0.33571056  1
  O  O22  1  0.30521131  0.00000103  0.16331093  1
  O  O23  1  0.63860067  0.63859845  0.83571481  1
  O  O24  1  0.69479518  0.69479403  0.16330913  1
  O  O25  1  0.36140475  0.00000846  0.83571175  1
  O  O26  1  0.66667028  0.33333514  0.51914995  1
  O  O27  1  0.66666774  0.33333203  0.01916017  1
  O  O28  1  0.63859118  -0.00000865  0.33570998  1
  O  O29  1  0.69478447  -0.00000129  0.66330937  1
