# generated using pymatgen
data_Li7Fe3Ni(PO4)6
_symmetry_space_group_name_H-M   'P 1'
_cell_length_a   8.81594879
_cell_length_b   8.81594971
_cell_length_c   8.66528197
_cell_angle_alpha   59.42313860
_cell_angle_beta   59.42313027
_cell_angle_gamma   59.99999570
_symmetry_Int_Tables_number   1
_chemical_formula_structural   Li7Fe3Ni(PO4)6
_chemical_formula_sum   'Li7 Fe3 Ni1 P6 O24'
_cell_volume   472.02342128
_cell_formula_units_Z   1
loop_
 _symmetry_equiv_pos_site_id
 _symmetry_equiv_pos_as_xyz
  1  'x, y, z'
loop_
 _atom_site_type_symbol
 _atom_site_label
 _atom_site_symmetry_multiplicity
 _atom_site_fract_x
 _atom_site_fract_y
 _atom_site_fract_z
 _atom_site_occupancy
  Li  Li0  1  0.24242800  0.70111800  0.61806700  1
  Li  Li1  1  0.43838700  0.24242800  0.61806700  1
  Li  Li2  1  0.20422700  0.66082300  0.28961300  1
  Li  Li3  1  0.70111800  0.43838700  0.61806700  1
  Li  Li4  1  0.66082300  0.84533800  0.28961300  1
  Li  Li5  1  0.84533800  0.20422700  0.28961300  1
  Li  Li6  1  0.99018900  0.99018900  0.02943300  1
  Fe  Fe7  1  0.35372000  0.35372000  0.93884100  1
  Fe  Fe8  1  0.13946700  0.13946700  0.58160000  1
  Fe  Fe9  1  0.64514600  0.64514600  0.06456400  1
  Ni  Ni10  1  0.85139800  0.85139800  0.44580700  1
  P  P11  1  0.04699900  0.45586100  0.75005900  1
  P  P12  1  0.45586100  0.74708100  0.75005900  1
  P  P13  1  0.74708100  0.04699900  0.75005900  1
  P  P14  1  0.24649600  0.95935600  0.24710300  1
  P  P15  1  0.54704500  0.24649600  0.24710300  1
  P  P16  1  0.95935600  0.54704500  0.24710300  1
  O  O17  1  0.05652400  0.27115300  0.75968400  1
  O  O18  1  0.24102600  0.42745700  0.74233100  1
  O  O19  1  0.03199000  0.62027100  0.56303200  1
  O  O20  1  0.50207100  0.68234200  0.92625800  1
  O  O21  1  0.27115300  0.91264000  0.75968400  1
  O  O22  1  0.42745700  0.58918700  0.74233100  1
  O  O23  1  0.68234200  0.88932900  0.92625800  1
  O  O24  1  0.58918700  0.24102600  0.74233100  1
  O  O25  1  0.21065100  0.97250300  0.43643800  1
  O  O26  1  0.06832200  0.96973000  0.23992300  1
  O  O27  1  0.88932900  0.50207100  0.92625800  1
  O  O28  1  0.38040800  0.21065100  0.43643800  1
  O  O29  1  0.62027100  0.78470800  0.56303200  1
  O  O30  1  0.11501100  0.49676800  0.07419400  1
  O  O31  1  0.91264000  0.05652400  0.75968400  1
  O  O32  1  0.78470800  0.03199000  0.56303200  1
  O  O33  1  0.38743700  0.75967100  0.25143100  1
  O  O34  1  0.31402700  0.11501100  0.07419400  1
  O  O35  1  0.60146100  0.38743700  0.25143100  1
  O  O36  1  0.49676800  0.31402700  0.07419400  1
  O  O37  1  0.72202400  0.06832200  0.23992300  1
  O  O38  1  0.97250300  0.38040800  0.43643800  1
  O  O39  1  0.75967100  0.60146100  0.25143100  1
  O  O40  1  0.96973000  0.72202400  0.23992300  1
