# generated using pymatgen
data_BaO
_symmetry_space_group_name_H-M   'P 1'
_cell_length_a   3.89362794
_cell_length_b   52.34937190
_cell_length_c   3.89332281
_cell_angle_alpha   90.00000000
_cell_angle_beta   120.00475992
_cell_angle_gamma   90.00000000
_symmetry_Int_Tables_number   1
_chemical_formula_structural   BaO
_chemical_formula_sum   'Ba16 O16'
_cell_volume   687.22055007
_cell_formula_units_Z   16
loop_
 _symmetry_equiv_pos_site_id
 _symmetry_equiv_pos_as_xyz
  1  'x, y, z'
loop_
 _atom_site_type_symbol
 _atom_site_label
 _atom_site_symmetry_multiplicity
 _atom_site_fract_x
 _atom_site_fract_y
 _atom_site_fract_z
 _atom_site_occupancy
  Ba  Ba0  1  0.85921455  0.25000000  0.67916426  1
  Ba  Ba1  1  0.15496329  0.56276452  0.32650626  1
  Ba  Ba2  1  0.15496329  0.93723548  0.32650626  1
  Ba  Ba3  1  0.47874283  0.62530118  0.98810568  1
  Ba  Ba4  1  0.47874283  0.87469882  0.98810568  1
  Ba  Ba5  1  0.19053842  0.18729358  0.34368244  1
  Ba  Ba6  1  0.19053842  0.31270642  0.34368244  1
  Ba  Ba7  1  0.50008226  -0.00024607  -0.00139147  1
  Ba  Ba8  1  0.50008226  0.50024607  -0.00139147  1
  Ba  Ba9  1  0.80915900  0.68747651  0.65293159  1
  Ba  Ba10  1  0.80915900  0.81252349  0.65293159  1
  Ba  Ba11  1  0.52153130  0.12492885  0.00919289  1
  Ba  Ba12  1  0.52153130  0.37507115  0.00919289  1
  Ba  Ba13  1  0.84562906  0.06228645  0.67199719  1
  Ba  Ba14  1  0.84562906  0.43771355  0.67199719  1
  Ba  Ba15  1  0.14128129  0.75000000  0.32066795  1
  O  O16  1  0.16971988  0.03067266  0.33394053  1
  O  O17  1  0.18780652  0.09392012  0.34271843  1
  O  O18  1  0.85579985  0.15612294  0.67800588  1
  O  O19  1  0.18780652  0.40607988  0.34271843  1
  O  O20  1  0.85579985  0.34387706  0.67800588  1
  O  O21  1  0.16971988  0.46932734  0.33394053  1
  O  O22  1  0.47402782  0.71839086  0.98740320  1
  O  O23  1  0.47402782  0.78160914  0.98740320  1
  O  O24  1  0.52564035  0.21830452  0.01271383  1
  O  O25  1  0.82986479  0.53119522  0.66466202  1
  O  O26  1  0.82986479  0.96880478  0.66466202  1
  O  O27  1  0.14395446  0.65639627  0.32208529  1
  O  O28  1  0.52564035  0.28169548  0.01271383  1
  O  O29  1  0.81229125  0.59436922  0.65575513  1
  O  O30  1  0.81229125  0.90563078  0.65575513  1
  O  O31  1  0.14395446  0.84360373  0.32208529  1
