# generated using pymatgen
data_Ba5Mn5O14
_symmetry_space_group_name_H-M   'P 1'
_cell_length_a   5.70529410
_cell_length_b   5.70529410
_cell_length_c   23.54920625
_cell_angle_alpha   90.00000000
_cell_angle_beta   90.00000000
_cell_angle_gamma   119.69449765
_symmetry_Int_Tables_number   1
_chemical_formula_structural   Ba5Mn5O14
_chemical_formula_sum   'Ba10 Mn10 O28'
_cell_volume   665.87347519
_cell_formula_units_Z   2
loop_
 _symmetry_equiv_pos_site_id
 _symmetry_equiv_pos_as_xyz
  1  'x, y, z'
loop_
 _atom_site_type_symbol
 _atom_site_label
 _atom_site_symmetry_multiplicity
 _atom_site_fract_x
 _atom_site_fract_y
 _atom_site_fract_z
 _atom_site_occupancy
  Ba  Ba0  1  0.33878453  0.67184018  0.04530336  1
  Ba  Ba1  1  0.33145151  0.66044511  0.64038671  1
  Ba  Ba2  1  0.00076501  0.99935335  0.75000000  1
  Ba  Ba3  1  0.33145151  0.66044511  0.85961329  1
  Ba  Ba4  1  0.99935335  0.00076501  0.25000000  1
  Ba  Ba5  1  0.33878453  0.67184018  0.45469664  1
  Ba  Ba6  1  0.67184018  0.33878453  0.95469664  1
  Ba  Ba7  1  0.67184018  0.33878453  0.54530336  1
  Ba  Ba8  1  0.66044511  0.33145151  0.14038671  1
  Ba  Ba9  1  0.66044511  0.33145151  0.35961329  1
  Mn  Mn10  1  0.34298415  0.67154988  0.19195628  1
  Mn  Mn11  1  0.01101904  0.01101904  0.50000000  1
  Mn  Mn12  1  0.00269286  0.00295228  0.60703650  1
  Mn  Mn13  1  0.00269286  0.00295228  0.89296350  1
  Mn  Mn14  1  0.01101904  0.01101904  -0.00000000  1
  Mn  Mn15  1  0.00295228  0.00269286  0.10703650  1
  Mn  Mn16  1  0.00295228  0.00269286  0.39296350  1
  Mn  Mn17  1  0.34298415  0.67154988  0.30804372  1
  Mn  Mn18  1  0.67154988  0.34298415  0.69195628  1
  Mn  Mn19  1  0.67154988  0.34298415  0.80804372  1
  O  O20  1  0.15559493  0.30648358  0.55143297  1
  O  O21  1  0.15559493  0.30648358  0.94856703  1
  O  O22  1  0.15623855  0.33085966  0.15171668  1
  O  O23  1  0.93790634  0.44260326  0.75000000  1
  O  O24  1  0.15623855  0.33085966  0.34828332  1
  O  O25  1  0.15662570  0.82598637  0.15123095  1
  O  O26  1  0.15439076  0.86185946  0.94792044  1
  O  O27  1  0.15662570  0.82598637  0.34876905  1
  O  O28  1  0.15439076  0.86185946  0.55207956  1
  O  O29  1  0.33085966  0.15623855  0.84828332  1
  O  O30  1  0.33085966  0.15623855  0.65171668  1
  O  O31  1  0.30648358  0.15559493  0.05143297  1
  O  O32  1  0.30648358  0.15559493  0.44856703  1
  O  O33  1  0.44260326  0.93790634  0.25000000  1
  O  O34  1  0.71515752  0.86342444  0.55143295  1
  O  O35  1  0.68367271  0.84252864  0.14827996  1
  O  O36  1  0.71515752  0.86342444  0.94856705  1
  O  O37  1  0.68367271  0.84252864  0.35172004  1
  O  O38  1  0.82598637  0.15662570  0.65123095  1
  O  O39  1  0.44461674  0.50516060  0.25000000  1
  O  O40  1  0.50516060  0.44461674  0.75000000  1
  O  O41  1  0.82598637  0.15662570  0.84876905  1
  O  O42  1  0.86185946  0.15439076  0.44792044  1
  O  O43  1  0.86185946  0.15439076  0.05207956  1
  O  O44  1  0.84252864  0.68367271  0.64827996  1
  O  O45  1  0.86342444  0.71515752  0.44856705  1
  O  O46  1  0.84252864  0.68367271  0.85172004  1
  O  O47  1  0.86342444  0.71515752  0.05143295  1
