# generated using pymatgen
data_Hf2N2O
_symmetry_space_group_name_H-M   'P 1'
_cell_length_a   8.63753381
_cell_length_b   8.67437168
_cell_length_c   8.69275928
_cell_angle_alpha   109.39200814
_cell_angle_beta   109.48256254
_cell_angle_gamma   109.37617451
_symmetry_Int_Tables_number   1
_chemical_formula_structural   Hf2N2O
_chemical_formula_sum   'Hf16 N16 O8'
_cell_volume   502.38117524
_cell_formula_units_Z   8
loop_
 _symmetry_equiv_pos_site_id
 _symmetry_equiv_pos_as_xyz
  1  'x, y, z'
loop_
 _atom_site_type_symbol
 _atom_site_label
 _atom_site_symmetry_multiplicity
 _atom_site_fract_x
 _atom_site_fract_y
 _atom_site_fract_z
 _atom_site_occupancy
  Hf  Hf0  1  0.99810024  0.00928762  0.49983472  1
  Hf  Hf1  1  0.25158591  0.70751776  0.46489069  1
  Hf  Hf2  1  0.77904880  0.53056792  0.25162203  1
  Hf  Hf3  1  0.28501296  0.04202175  0.24915634  1
  Hf  Hf4  1  0.74039044  0.78612697  0.03409038  1
  Hf  Hf5  1  0.03169623  0.25987278  0.28440971  1
  Hf  Hf6  1  0.53444179  0.25299456  0.78361210  1
  Hf  Hf7  1  0.96688734  0.74196854  0.71510085  1
  Hf  Hf8  1  0.00333223  0.49028098  0.99489001  1
  Hf  Hf9  1  0.49989954  0.99986388  0.00210795  1
  Hf  Hf10  1  0.46736881  0.74206699  0.21285872  1
  Hf  Hf11  1  0.48979994  0.49042223  0.48900699  1
  Hf  Hf12  1  0.25844175  0.21596506  0.96730659  1
  Hf  Hf13  1  0.21503685  0.46258784  0.74975881  1
  Hf  Hf14  1  0.71551800  0.96923055  0.75074784  1
  Hf  Hf15  1  0.75523377  0.29240736  0.54221100  1
  N  N16  1  0.73192629  0.76064333  0.27095877  1
  N  N17  1  0.22778914  0.95530786  0.96549481  1
  N  N18  1  0.53846723  0.27346781  0.04395099  1
  N  N19  1  0.51246736  0.74547160  0.47079248  1
  N  N20  1  0.99016437  0.46483144  0.23092980  1
  N  N21  1  0.26761570  0.23170484  0.72411995  1
  N  N22  1  0.48735853  0.25836334  0.53106476  1
  N  N23  1  0.25771492  0.27143408  0.22781904  1
  N  N24  1  0.77479548  0.22610279  0.76761051  1
  N  N25  1  0.77353112  0.04149177  0.03109082  1
  N  N26  1  0.46713290  0.72933229  0.95508108  1
  N  N27  1  0.24113039  0.46726157  0.01787803  1
  N  N28  1  0.00951107  0.54444970  0.77502707  1
  N  N29  1  0.73098939  0.49389274  0.45728528  1
  N  N30  1  0.27448401  0.51673883  0.54918590  1
  N  N31  1  0.94587271  0.21888347  0.48120910  1
  O  O32  1  0.95843663  0.00207292  0.72963757  1
  O  O33  1  0.03894684  0.98447400  0.26631874  1
  O  O34  1  0.45053871  0.96531715  0.72834250  1
  O  O35  1  0.05724884  0.78231463  0.52357232  1
  O  O36  1  0.74820049  0.72928555  0.77809986  1
  O  O37  1  0.75701327  0.53517924  0.97719991  1
  O  O38  1  0.54077112  0.03210309  0.26945507  1
  O  O39  1  0.22609291  0.77669317  0.23627493  1
