# generated using pymatgen
data_Ho2(SeO4)3
_symmetry_space_group_name_H-M   'P 1'
_cell_length_a   9.83310587
_cell_length_b   9.83317571
_cell_length_c   9.83311331
_cell_angle_alpha   58.05414922
_cell_angle_beta   58.05380574
_cell_angle_gamma   58.05413616
_symmetry_Int_Tables_number   1
_chemical_formula_structural   Ho2(SeO4)3
_chemical_formula_sum   'Ho4 Se6 O24'
_cell_volume   642.29464183
_cell_formula_units_Z   2
loop_
 _symmetry_equiv_pos_site_id
 _symmetry_equiv_pos_as_xyz
  1  'x, y, z'
loop_
 _atom_site_type_symbol
 _atom_site_label
 _atom_site_symmetry_multiplicity
 _atom_site_fract_x
 _atom_site_fract_y
 _atom_site_fract_z
 _atom_site_occupancy
  Ho  Ho0  1  0.64315232  0.64315685  0.64315682  1
  Ho  Ho1  1  0.35684354  0.35684600  0.35684242  1
  Ho  Ho2  1  0.14315060  0.14315666  0.14315829  1
  Ho  Ho3  1  0.85684725  0.85683895  0.85684620  1
  Se  Se4  1  0.74999796  0.03590170  0.46409712  1
  Se  Se5  1  0.96409277  0.53589978  0.25000332  1
  Se  Se6  1  0.53590723  0.24999442  0.96409983  1
  Se  Se7  1  0.46409848  0.74999492  0.03590915  1
  Se  Se8  1  0.03590226  0.46409675  0.75000142  1
  Se  Se9  1  0.24999901  0.96409874  0.53590212  1
  O  O10  1  0.91812761  0.06282588  0.29338737  1
  O  O11  1  0.77524636  0.00680097  0.63080117  1
  O  O12  1  0.99319950  0.36919303  0.22475867  1
  O  O13  1  0.70661227  0.08187010  0.93717631  1
  O  O14  1  0.58187324  0.20661169  0.43717435  1
  O  O15  1  0.86919398  0.49320627  0.72475498  1
  O  O16  1  0.50679988  0.27524255  0.13080566  1
  O  O17  1  0.79338893  0.56282097  0.41813161  1
  O  O18  1  0.93717265  0.70660465  0.08187398  1
  O  O19  1  0.56282979  0.41812373  0.79339224  1
  O  O20  1  0.36920199  0.22475339  0.99319466  1
  O  O21  1  0.27524176  0.13080827  0.50679600  1
  O  O22  1  0.72475385  0.86920088  0.49319664  1
  O  O23  1  0.63080562  0.77524274  0.00680038  1
  O  O24  1  0.43717918  0.58186873  0.20661315  1
  O  O25  1  0.06282287  0.29339443  0.91812733  1
  O  O26  1  0.20660436  0.43717820  0.58187200  1
  O  O27  1  0.49320098  0.72475386  0.86919955  1
  O  O28  1  0.13080011  0.50680000  0.27524547  1
  O  O29  1  0.41812904  0.79339763  0.56281982  1
  O  O30  1  0.29339502  0.91812349  0.06282852  1
  O  O31  1  0.00679913  0.63080930  0.77523934  1
  O  O32  1  0.22475878  0.99320423  0.36919141  1
  O  O33  1  0.08187069  0.93717926  0.70660372  1
