# generated using pymatgen
data_Cs2MgH8(CO5)2
_symmetry_space_group_name_H-M   'P 1'
_cell_length_a   6.76497892
_cell_length_b   12.61063271
_cell_length_c   13.11948601
_cell_angle_alpha   90.00000000
_cell_angle_beta   90.00000000
_cell_angle_gamma   90.00000000
_symmetry_Int_Tables_number   1
_chemical_formula_structural   Cs2MgH8(CO5)2
_chemical_formula_sum   'Cs8 Mg4 H32 C8 O40'
_cell_volume   1119.23206877
_cell_formula_units_Z   4
loop_
 _symmetry_equiv_pos_site_id
 _symmetry_equiv_pos_as_xyz
  1  'x, y, z'
loop_
 _atom_site_type_symbol
 _atom_site_label
 _atom_site_symmetry_multiplicity
 _atom_site_fract_x
 _atom_site_fract_y
 _atom_site_fract_z
 _atom_site_occupancy
  Cs  Cs0  1  0.63057032  0.27257621  0.37060797  1
  Cs  Cs1  1  0.13057032  0.22742379  0.62939203  1
  Cs  Cs2  1  0.36942968  0.77257621  0.12939203  1
  Cs  Cs3  1  0.86942968  0.72742379  0.87060797  1
  Cs  Cs4  1  0.36942968  0.72742379  0.62939203  1
  Cs  Cs5  1  0.86942968  0.77257621  0.37060797  1
  Cs  Cs6  1  0.63057032  0.22742379  0.87060797  1
  Cs  Cs7  1  0.13057032  0.27257621  0.12939203  1
  Mg  Mg8  1  0.50000000  0.00000000  0.50000000  1
  Mg  Mg9  1  0.00000000  0.50000000  0.50000000  1
  Mg  Mg10  1  0.50000000  0.50000000  0.00000000  1
  Mg  Mg11  1  0.00000000  0.00000000  0.00000000  1
  H  H12  1  0.72170019  0.56998622  0.60531357  1
  H  H13  1  0.22170019  0.93001378  0.39468643  1
  H  H14  1  0.27829981  0.06998622  0.89468643  1
  H  H15  1  0.77829981  0.43001378  0.10531357  1
  H  H16  1  0.27829981  0.43001378  0.39468643  1
  H  H17  1  0.77829981  0.06998622  0.60531357  1
  H  H18  1  0.72170019  0.93001378  0.10531357  1
  H  H19  1  0.22170019  0.56998622  0.89468643  1
  H  H20  1  0.85166475  0.68363465  0.59774785  1
  H  H21  1  0.35166475  0.81636535  0.40225215  1
  H  H22  1  0.14833525  0.18363465  0.90225215  1
  H  H23  1  0.64833525  0.31636535  0.09774785  1
  H  H24  1  0.14833525  0.31636535  0.40225215  1
  H  H25  1  0.64833525  0.18363465  0.59774785  1
  H  H26  1  0.85166475  0.81636535  0.09774785  1
  H  H27  1  0.35166475  0.68363465  0.90225215  1
  H  H28  1  0.63138578  0.48208687  0.78762190  1
  H  H29  1  0.13138578  0.01791313  0.21237810  1
  H  H30  1  0.36861422  0.98208687  0.71237810  1
  H  H31  1  0.86861422  0.51791313  0.28762190  1
  H  H32  1  0.36861422  0.51791313  0.21237810  1
  H  H33  1  0.86861422  0.98208687  0.78762190  1
  H  H34  1  0.63138578  0.01791313  0.28762190  1
  H  H35  1  0.13138578  0.48208687  0.71237810  1
  H  H36  1  0.81805149  0.47235747  0.86051938  1
  H  H37  1  0.31805149  0.02764253  0.13948062  1
  H  H38  1  0.18194851  0.97235747  0.63948062  1
  H  H39  1  0.68194851  0.52764253  0.36051938  1
  H  H40  1  0.18194851  0.52764253  0.13948062  1
  H  H41  1  0.68194851  0.97235747  0.86051938  1
  H  H42  1  0.81805149  0.02764253  0.36051938  1
  H  H43  1  0.31805149  0.47235747  0.63948062  1
  C  C44  1  0.65824169  0.11365081  0.11894191  1
  C  C45  1  0.15824169  0.38634919  0.88105809  1
  C  C46  1  0.34175831  0.61365081  0.38105809  1
  C  C47  1  0.84175831  0.88634919  0.61894191  1
  C  C48  1  0.34175831  0.88634919  0.88105809  1
  C  C49  1  0.84175831  0.61365081  0.11894191  1
  C  C50  1  0.65824169  0.38634919  0.61894191  1
  C  C51  1  0.15824169  0.11365081  0.38105809  1
  O  O52  1  0.69571453  0.88765619  0.55454205  1
  O  O53  1  0.19571453  0.61234381  0.44545795  1
  O  O54  1  0.30428547  0.38765619  0.94545795  1
  O  O55  1  0.80428547  0.11234381  0.05454205  1
  O  O56  1  0.30428547  0.11234381  0.44545795  1
  O  O57  1  0.80428547  0.38765619  0.55454205  1
  O  O58  1  0.69571453  0.61234381  0.05454205  1
  O  O59  1  0.19571453  0.88765619  0.94545795  1
  O  O60  1  0.57844828  0.20206660  0.14639817  1
  O  O61  1  0.07844828  0.29793340  0.85360183  1
  O  O62  1  0.42155172  0.70206660  0.35360183  1
  O  O63  1  0.92155172  0.79793340  0.64639817  1
  O  O64  1  0.42155172  0.79793340  0.85360183  1
  O  O65  1  0.92155172  0.70206660  0.14639817  1
  O  O66  1  0.57844828  0.29793340  0.64639817  1
  O  O67  1  0.07844828  0.20206660  0.35360183  1
  O  O68  1  0.41036823  0.52367758  0.34350919  1
  O  O69  1  0.91036823  0.97632242  0.65649081  1
  O  O70  1  0.58963177  0.02367758  0.15649081  1
  O  O71  1  0.08963177  0.47632242  0.84350919  1
  O  O72  1  0.58963177  0.47632242  0.65649081  1
  O  O73  1  0.08963177  0.02367758  0.34350919  1
  O  O74  1  0.41036823  0.97632242  0.84350919  1
  O  O75  1  0.91036823  0.52367758  0.15649081  1
  O  O76  1  0.68445366  0.11479655  0.56286365  1
  O  O77  1  0.18445366  0.38520345  0.43713635  1
  O  O78  1  0.31554634  0.61479655  0.93713635  1
  O  O79  1  0.81554634  0.88520345  0.06286365  1
  O  O80  1  0.31554634  0.88520345  0.43713635  1
  O  O81  1  0.81554634  0.61479655  0.56286365  1
  O  O82  1  0.68445366  0.38520345  0.06286365  1
  O  O83  1  0.18445366  0.11479655  0.93713635  1
  O  O84  1  0.67235774  0.01643031  0.36074705  1
  O  O85  1  0.17235774  0.48356969  0.63925295  1
  O  O86  1  0.32764226  0.51643031  0.13925295  1
  O  O87  1  0.82764226  0.98356969  0.86074705  1
  O  O88  1  0.32764226  0.98356969  0.63925295  1
  O  O89  1  0.82764226  0.51643031  0.36074705  1
  O  O90  1  0.67235774  0.48356969  0.86074705  1
  O  O91  1  0.17235774  0.01643031  0.13925295  1
