# generated using pymatgen
data_Ho2WO6
_symmetry_space_group_name_H-M   'P 1'
_cell_length_a   5.19434332
_cell_length_b   9.01439248
_cell_length_c   9.85030711
_cell_angle_alpha   90.00000000
_cell_angle_beta   90.00000000
_cell_angle_gamma   90.00000000
_symmetry_Int_Tables_number   1
_chemical_formula_structural   Ho2WO6
_chemical_formula_sum   'Ho8 W4 O24'
_cell_volume   461.22929629
_cell_formula_units_Z   4
loop_
 _symmetry_equiv_pos_site_id
 _symmetry_equiv_pos_as_xyz
  1  'x, y, z'
loop_
 _atom_site_type_symbol
 _atom_site_label
 _atom_site_symmetry_multiplicity
 _atom_site_fract_x
 _atom_site_fract_y
 _atom_site_fract_z
 _atom_site_occupancy
  Ho  Ho0  1  0.01873566  0.39652955  0.03419949  1
  Ho  Ho1  1  0.03809459  0.28051466  0.62766601  1
  Ho  Ho2  1  0.46190541  0.71948534  0.12766601  1
  Ho  Ho3  1  0.48126434  0.60347045  0.53419949  1
  Ho  Ho4  1  0.51873566  0.10347045  0.96580051  1
  Ho  Ho5  1  0.53809459  0.21948534  0.37233399  1
  Ho  Ho6  1  0.96190541  0.78051466  0.87233399  1
  Ho  Ho7  1  0.98126434  0.89652955  0.46580051  1
  W  W8  1  0.03900918  0.00501742  0.15309449  1
  W  W9  1  0.46099082  0.99498258  0.65309449  1
  W  W10  1  0.53900918  0.49498258  0.84690551  1
  W  W11  1  0.96099082  0.50501742  0.34690551  1
  O  O12  1  0.08486758  0.65691422  0.46967175  1
  O  O13  1  0.17664942  0.54682028  0.20164996  1
  O  O14  1  0.18004344  0.86199436  0.68103493  1
  O  O15  1  0.19431679  0.85945171  0.26458833  1
  O  O16  1  0.23204951  0.38564051  0.43221240  1
  O  O17  1  0.25173308  0.08971754  0.50547428  1
  O  O18  1  0.24826692  0.91028246  0.00547428  1
  O  O19  1  0.26795049  0.61435949  0.93221240  1
  O  O20  1  0.30568321  0.14054829  0.76458833  1
  O  O21  1  0.31995656  0.13800564  0.18103493  1
  O  O22  1  0.32335058  0.45317972  0.70164996  1
  O  O23  1  0.41513242  0.34308578  0.96967175  1
  O  O24  1  0.58486758  0.84308578  0.53032825  1
  O  O25  1  0.67664942  0.95317972  0.79835004  1
  O  O26  1  0.68004344  0.63800564  0.31896507  1
  O  O27  1  0.69431679  0.64054829  0.73541167  1
  O  O28  1  0.73204951  0.11435949  0.56778760  1
  O  O29  1  0.75173308  0.41028246  0.49452572  1
  O  O30  1  0.74826692  0.58971754  0.99452572  1
  O  O31  1  0.76795049  0.88564051  0.06778760  1
  O  O32  1  0.80568321  0.35945171  0.23541167  1
  O  O33  1  0.81995656  0.36199436  0.81896507  1
  O  O34  1  0.82335058  0.04682028  0.29835004  1
  O  O35  1  0.91513242  0.15691422  0.03032825  1
