# generated using pymatgen
data_Li2MnFe(BO3)2
_symmetry_space_group_name_H-M   'P 1'
_cell_length_a   5.25606251
_cell_length_b   5.23406298
_cell_length_c   20.80806718
_cell_angle_alpha   89.31154527
_cell_angle_beta   91.06690394
_cell_angle_gamma   60.03799658
_symmetry_Int_Tables_number   1
_chemical_formula_structural   Li2MnFe(BO3)2
_chemical_formula_sum   'Li8 Mn4 Fe4 B8 O24'
_cell_volume   495.70257167
_cell_formula_units_Z   4
loop_
 _symmetry_equiv_pos_site_id
 _symmetry_equiv_pos_as_xyz
  1  'x, y, z'
loop_
 _atom_site_type_symbol
 _atom_site_label
 _atom_site_symmetry_multiplicity
 _atom_site_fract_x
 _atom_site_fract_y
 _atom_site_fract_z
 _atom_site_occupancy
  Li  Li0  1  0.32594200  0.65339200  0.66621000  1
  Li  Li1  1  0.34573500  0.67661000  0.91688000  1
  Li  Li2  1  0.32318200  0.65290600  0.16606800  1
  Li  Li3  1  0.34839400  0.67738300  0.41650300  1
  Li  Li4  1  0.65114600  0.33216600  0.79275800  1
  Li  Li5  1  0.66318000  0.34908100  0.54174800  1
  Li  Li6  1  0.65133200  0.33408700  0.29141900  1
  Li  Li7  1  0.66060000  0.35129400  0.04134700  1
  Mn  Mn8  1  0.32656400  0.00792900  0.55938700  1
  Mn  Mn9  1  0.67576400  0.99968000  0.93193000  1
  Mn  Mn10  1  0.67758000  0.00076700  0.43252700  1
  Mn  Mn11  1  0.99859200  0.32568300  0.18374800  1
  Fe  Fe12  1  0.33687600  0.01157300  0.05868000  1
  Fe  Fe13  1  0.99273400  0.32311300  0.68478800  1
  Fe  Fe14  1  0.00201000  0.66896800  0.80737600  1
  Fe  Fe15  1  0.00439600  0.66809400  0.30747600  1
  B  B16  1  0.00357100  0.33785200  0.93673000  1
  B  B17  1  0.00447800  0.34060300  0.43635300  1
  B  B18  1  0.32831900  0.00316200  0.81104700  1
  B  B19  1  0.33019300  0.00671000  0.31167600  1
  B  B20  1  0.66344600  0.99855800  0.68807800  1
  B  B21  1  0.66022600  0.99684000  0.18733200  1
  B  B22  1  0.99353700  0.66845000  0.56320900  1
  B  B23  1  0.99589800  0.66562100  0.06191100  1
  O  O24  1  0.06363000  0.25287300  0.79242500  1
  O  O25  1  0.06487900  0.25362800  0.29216600  1
  O  O26  1  0.25414600  0.06603700  0.95190900  1
  O  O27  1  0.03309200  0.57643000  0.91627900  1
  O  O28  1  0.25475500  0.06873900  0.45201700  1
  O  O29  1  0.03563700  0.57770000  0.41566100  1
  O  O30  1  0.57875500  0.02358600  0.82512500  1
  O  O31  1  0.26817700  0.64311500  0.57004600  1
  O  O32  1  0.57919700  0.02911800  0.32593300  1
  O  O33  1  0.26515800  0.65217200  0.06866900  1
  O  O34  1  0.34681300  0.73002200  0.81800500  1
  O  O35  1  0.34732300  0.73373200  0.31809200  1
  O  O36  1  0.64024100  0.27380800  0.69446300  1
  O  O37  1  0.63105400  0.27319200  0.19376100  1
  O  O38  1  0.72783600  0.36756900  0.94355900  1
  O  O39  1  0.41779300  0.97916300  0.66929700  1
  O  O40  1  0.72911600  0.37060100  0.44355400  1
  O  O41  1  0.42348800  0.96491400  0.16690700  1
  O  O42  1  0.96061700  0.42541600  0.57904200  1
  O  O43  1  0.96901700  0.41664300  0.07621400  1
  O  O44  1  0.75071800  0.93249100  0.54145200  1
  O  O45  1  0.74675400  0.92916900  0.04204700  1
  O  O46  1  0.93403900  0.74387100  0.70171100  1
  O  O47  1  0.93287100  0.74669100  0.20268900  1
