# generated using pymatgen
data_FeP2HO7
_symmetry_space_group_name_H-M   'P 1'
_cell_length_a   7.37792322
_cell_length_b   8.22752923
_cell_length_c   8.26521053
_cell_angle_alpha   90.00000000
_cell_angle_beta   90.00000000
_cell_angle_gamma   102.42510879
_symmetry_Int_Tables_number   1
_chemical_formula_structural   FeP2HO7
_chemical_formula_sum   'Fe4 P8 H4 O28'
_cell_volume   489.96432297
_cell_formula_units_Z   4
loop_
 _symmetry_equiv_pos_site_id
 _symmetry_equiv_pos_as_xyz
  1  'x, y, z'
loop_
 _atom_site_type_symbol
 _atom_site_label
 _atom_site_symmetry_multiplicity
 _atom_site_fract_x
 _atom_site_fract_y
 _atom_site_fract_z
 _atom_site_occupancy
  Fe  Fe0  1  0.52263672  0.97663374  0.30290964  1
  Fe  Fe1  1  0.97736328  0.52336626  0.80290964  1
  Fe  Fe2  1  0.47736328  0.02336626  0.69709036  1
  Fe  Fe3  1  0.02263672  0.47663374  0.19709036  1
  P  P4  1  0.88224337  0.80702412  0.28289554  1
  P  P5  1  0.61775663  0.69297588  0.78289554  1
  P  P6  1  0.11775663  0.19297588  0.71710446  1
  P  P7  1  0.38224337  0.30702412  0.21710446  1
  P  P8  1  0.17927186  0.73818562  0.49112460  1
  P  P9  1  0.32072814  0.76181438  0.99112460  1
  P  P10  1  0.82072814  0.26181438  0.50887540  1
  P  P11  1  0.67927186  0.23818562  0.00887540  1
  H  H12  1  0.38823429  0.50849473  0.38290386  1
  H  H13  1  0.11176571  0.99150527  0.88290386  1
  H  H14  1  0.61176571  0.49150527  0.61709614  1
  H  H15  1  0.88823429  0.00849473  0.11709614  1
  O  O16  1  0.86137216  0.63017192  0.22921553  1
  O  O17  1  0.63862784  0.86982808  0.72921553  1
  O  O18  1  0.13862784  0.36982808  0.77078447  1
  O  O19  1  0.36137216  0.13017192  0.27078447  1
  O  O20  1  0.71021117  0.85020559  0.34939876  1
  O  O21  1  0.78978883  0.64979441  0.84939876  1
  O  O22  1  0.28978883  0.14979441  0.65060124  1
  O  O23  1  0.21021117  0.35020559  0.15060124  1
  O  O24  1  0.96686850  0.93031127  0.14724286  1
  O  O25  1  0.53313150  0.56968873  0.64724286  1
  O  O26  1  0.03313150  0.06968873  0.85275714  1
  O  O27  1  0.46686850  0.43031127  0.35275714  1
  O  O28  1  0.03427572  0.83810445  0.42166071  1
  O  O29  1  0.46572428  0.66189555  0.92166071  1
  O  O30  1  0.96572428  0.16189555  0.57833929  1
  O  O31  1  0.53427572  0.33810445  0.07833929  1
  O  O32  1  0.18537401  0.59318130  0.37952202  1
  O  O33  1  0.31462599  0.90681870  0.87952202  1
  O  O34  1  0.81462599  0.40681870  0.62047798  1
  O  O35  1  0.68537401  0.09318130  0.12047798  1
  O  O36  1  0.11796348  0.68729583  0.65993751  1
  O  O37  1  0.38203652  0.81270417  0.15993751  1
  O  O38  1  0.88203652  0.31270417  0.34006249  1
  O  O39  1  0.61796348  0.18729583  0.84006249  1
  O  O40  1  0.36397000  0.86565784  0.49676808  1
  O  O41  1  0.13603000  0.63434216  0.99676808  1
  O  O42  1  0.63603000  0.13434116  0.50323192  1
  O  O43  1  0.86397000  0.36565784  0.00323192  1
