# generated using pymatgen
data_Rb2PtS2
_symmetry_space_group_name_H-M   'P 1'
_cell_length_a   3.64972601
_cell_length_b   6.41735054
_cell_length_c   6.41735006
_cell_angle_alpha   69.48675247
_cell_angle_beta   73.47917175
_cell_angle_gamma   73.47916518
_symmetry_Int_Tables_number   1
_chemical_formula_structural   Rb2PtS2
_chemical_formula_sum   'Rb2 Pt1 S2'
_cell_volume   132.07559366
_cell_formula_units_Z   1
loop_
 _symmetry_equiv_pos_site_id
 _symmetry_equiv_pos_as_xyz
  1  'x, y, z'
loop_
 _atom_site_type_symbol
 _atom_site_label
 _atom_site_symmetry_multiplicity
 _atom_site_fract_x
 _atom_site_fract_y
 _atom_site_fract_z
 _atom_site_occupancy
  Rb  Rb0  1  0.80811179  0.69188821  0.69188821  1
  Rb  Rb1  1  0.19188821  0.30811179  0.30811179  1
  Pt  Pt2  1  -0.00000000  -0.00000000  0.00000000  1
  S  S3  1  0.50000000  0.79109084  0.20890916  1
  S  S4  1  0.50000000  0.20890916  0.79109084  1
