# generated using pymatgen
data_Ba3SrTa2O9
_symmetry_space_group_name_H-M   'P 1'
_cell_length_a   5.97167483
_cell_length_b   5.97167452
_cell_length_c   7.55186502
_cell_angle_alpha   90.00000000
_cell_angle_beta   90.00000000
_cell_angle_gamma   119.99999625
_symmetry_Int_Tables_number   1
_chemical_formula_structural   Ba3SrTa2O9
_chemical_formula_sum   'Ba3 Sr1 Ta2 O9'
_cell_volume   233.22609843
_cell_formula_units_Z   1
loop_
 _symmetry_equiv_pos_site_id
 _symmetry_equiv_pos_as_xyz
  1  'x, y, z'
loop_
 _atom_site_type_symbol
 _atom_site_label
 _atom_site_symmetry_multiplicity
 _atom_site_fract_x
 _atom_site_fract_y
 _atom_site_fract_z
 _atom_site_occupancy
  Ba  Ba0  1  0.33333300  0.66666700  0.68624803  1
  Ba  Ba1  1  0.00000000  0.00000000  0.00000000  1
  Ba  Ba2  1  0.66666700  0.33333300  0.31375197  1
  Sr  Sr3  1  0.00000000  0.00000000  0.50000000  1
  Ta  Ta4  1  0.33333300  0.66666700  0.16457386  1
  Ta  Ta5  1  0.66666700  0.33333300  0.83542614  1
  O  O6  1  0.50000000  0.50000000  0.00000000  1
  O  O7  1  0.00000000  0.50000000  0.00000000  1
  O  O8  1  0.50000000  0.00000000  0.00000000  1
  O  O9  1  0.82111422  0.17888578  0.69917189  1
  O  O10  1  0.82111422  0.64222744  0.69917189  1
  O  O11  1  0.35777256  0.17888578  0.69917189  1
  O  O12  1  0.17888578  0.82111422  0.30082811  1
  O  O13  1  0.17888578  0.35777256  0.30082811  1
  O  O14  1  0.64222744  0.82111422  0.30082811  1
