# generated using pymatgen
data_Na3SiH5O6
_symmetry_space_group_name_H-M   'P 1'
_cell_length_a   10.16856500
_cell_length_b   10.58946800
_cell_length_c   11.42177500
_cell_angle_alpha   90.00000000
_cell_angle_beta   90.00000000
_cell_angle_gamma   90.00000000
_symmetry_Int_Tables_number   1
_chemical_formula_structural   Na3SiH5O6
_chemical_formula_sum   'Na24 Si8 H40 O48'
_cell_volume   1229.89323321
_cell_formula_units_Z   8
loop_
 _symmetry_equiv_pos_site_id
 _symmetry_equiv_pos_as_xyz
  1  'x, y, z'
loop_
 _atom_site_type_symbol
 _atom_site_label
 _atom_site_symmetry_multiplicity
 _atom_site_fract_x
 _atom_site_fract_y
 _atom_site_fract_z
 _atom_site_occupancy
  Na  Na0  1  0.74514500  0.60720500  0.07016500  1
  Na  Na1  1  0.75485500  0.10720500  0.92983500  1
  Na  Na2  1  0.24514500  0.39279500  0.42983500  1
  Na  Na3  1  0.25485500  0.89279500  0.57016500  1
  Na  Na4  1  0.25485500  0.39279500  0.92983500  1
  Na  Na5  1  0.24514500  0.89279500  0.07016500  1
  Na  Na6  1  0.75485500  0.60720500  0.57016500  1
  Na  Na7  1  0.74514500  0.10720500  0.42983500  1
  Na  Na8  1  0.04513200  0.61284700  0.92084300  1
  Na  Na9  1  0.45486800  0.11284700  0.07915700  1
  Na  Na10  1  0.54513200  0.38715300  0.57915700  1
  Na  Na11  1  0.95486800  0.88715300  0.42084300  1
  Na  Na12  1  0.95486800  0.38715300  0.07915700  1
  Na  Na13  1  0.54513200  0.88715300  0.92084300  1
  Na  Na14  1  0.45486800  0.61284700  0.42084300  1
  Na  Na15  1  0.04513200  0.11284700  0.57915700  1
  Na  Na16  1  0.95107000  0.04708700  0.15687400  1
  Na  Na17  1  0.54893000  0.54708700  0.84312600  1
  Na  Na18  1  0.45107000  0.95291300  0.34312600  1
  Na  Na19  1  0.04893000  0.45291300  0.65687400  1
  Na  Na20  1  0.04893000  0.95291300  0.84312600  1
  Na  Na21  1  0.45107000  0.45291300  0.15687400  1
  Na  Na22  1  0.54893000  0.04708700  0.65687400  1
  Na  Na23  1  0.95107000  0.54708700  0.34312600  1
  Si  Si24  1  0.01595700  0.74766300  0.14695400  1
  Si  Si25  1  0.48404300  0.24766300  0.85304600  1
  Si  Si26  1  0.51595700  0.25233700  0.35304600  1
  Si  Si27  1  0.98404300  0.75233700  0.64695400  1
  Si  Si28  1  0.98404300  0.25233700  0.85304600  1
  Si  Si29  1  0.51595700  0.75233700  0.14695400  1
  Si  Si30  1  0.48404300  0.74766300  0.64695400  1
  Si  Si31  1  0.01595700  0.24766300  0.35304600  1
  H  H32  1  0.81173300  0.80187500  0.21891500  1
  H  H33  1  0.68826700  0.30187500  0.78108500  1
  H  H34  1  0.31173300  0.19812500  0.28108500  1
  H  H35  1  0.18826700  0.69812500  0.71891500  1
  H  H36  1  0.18826700  0.19812500  0.78108500  1
  H  H37  1  0.31173300  0.69812500  0.21891500  1
  H  H38  1  0.68826700  0.80187500  0.71891500  1
  H  H39  1  0.81173300  0.30187500  0.28108500  1
  H  H40  1  0.18971700  0.36628600  0.19102300  1
  H  H41  1  0.31028300  0.86628600  0.80897800  1
  H  H42  1  0.68971700  0.63371400  0.30897800  1
  H  H43  1  0.81028300  0.13371400  0.69102200  1
  H  H44  1  0.81028300  0.63371400  0.80897800  1
  H  H45  1  0.68971700  0.13371400  0.19102300  1
  H  H46  1  0.31028300  0.36628600  0.69102200  1
  H  H47  1  0.18971700  0.86628600  0.30897800  1
  H  H48  1  0.18933200  0.51384000  0.15412200  1
  H  H49  1  0.31066800  0.01384000  0.84587800  1
  H  H50  1  0.68933200  0.48616000  0.34587800  1
  H  H51  1  0.81066800  0.98616000  0.65412200  1
  H  H52  1  0.81066800  0.48616000  0.84587800  1
  H  H53  1  0.68933200  0.98616000  0.15412200  1
  H  H54  1  0.31066800  0.51384000  0.65412200  1
  H  H55  1  0.18933200  0.01384000  0.34587800  1
  H  H56  1  0.82083300  0.83427900  0.84380300  1
  H  H57  1  0.67916700  0.33427900  0.15619700  1
  H  H58  1  0.32083300  0.16572100  0.65619700  1
  H  H59  1  0.17916700  0.66572100  0.34380300  1
  H  H60  1  0.17916700  0.16572100  0.15619700  1
  H  H61  1  0.32083300  0.66572100  0.84380300  1
  H  H62  1  0.67916700  0.83427900  0.34380300  1
  H  H63  1  0.82083300  0.33427900  0.65619700  1
  H  H64  1  0.88791200  0.86076700  0.96682800  1
  H  H65  1  0.61208800  0.36076700  0.03317200  1
  H  H66  1  0.38791200  0.13923300  0.53317200  1
  H  H67  1  0.11208800  0.63923300  0.46682800  1
  H  H68  1  0.11208800  0.13923300  0.03317200  1
  H  H69  1  0.38791200  0.63923300  0.96682800  1
  H  H70  1  0.61208800  0.86076700  0.46682800  1
  H  H71  1  0.88791200  0.36076700  0.53317200  1
  O  O72  1  0.96542300  0.60262000  0.13431400  1
  O  O73  1  0.53457700  0.10262000  0.86568600  1
  O  O74  1  0.46542300  0.39738000  0.36568600  1
  O  O75  1  0.03457700  0.89738000  0.63431400  1
  O  O76  1  0.03457700  0.39738000  0.86568600  1
  O  O77  1  0.46542300  0.89738000  0.13431400  1
  O  O78  1  0.53457700  0.60262000  0.63431400  1
  O  O79  1  0.96542300  0.10262000  0.36568600  1
  O  O80  1  0.02875100  0.82120000  0.02145600  1
  O  O81  1  0.47124900  0.32120000  0.97854400  1
  O  O82  1  0.52875100  0.17880000  0.47854400  1
  O  O83  1  0.97124900  0.67880000  0.52145600  1
  O  O84  1  0.97124900  0.17880000  0.97854400  1
  O  O85  1  0.52875100  0.67880000  0.02145600  1
  O  O86  1  0.47124900  0.82120000  0.52145600  1
  O  O87  1  0.02875100  0.32120000  0.47854400  1
  O  O88  1  0.15475500  0.75998800  0.22252000  1
  O  O89  1  0.34524500  0.25998800  0.77748000  1
  O  O90  1  0.65475500  0.24001200  0.27748000  1
  O  O91  1  0.84524500  0.74001200  0.72252000  1
  O  O92  1  0.84524500  0.24001200  0.77748000  1
  O  O93  1  0.65475500  0.74001200  0.22252000  1
  O  O94  1  0.34524500  0.75998800  0.72252000  1
  O  O95  1  0.15475500  0.25998800  0.27748000  1
  O  O96  1  0.90452000  0.83188400  0.22852400  1
  O  O97  1  0.59548000  0.33188400  0.77147600  1
  O  O98  1  0.40452000  0.16811600  0.27147600  1
  O  O99  1  0.09548000  0.66811600  0.72852400  1
  O  O100  1  0.09548000  0.16811600  0.77147600  1
  O  O101  1  0.40452000  0.66811600  0.22852400  1
  O  O102  1  0.59548000  0.83188400  0.72852400  1
  O  O103  1  0.90452000  0.33188400  0.27147600  1
  O  O104  1  0.21867800  0.43060400  0.12829500  1
  O  O105  1  0.28132200  0.93060400  0.87170500  1
  O  O106  1  0.71867800  0.56939600  0.37170500  1
  O  O107  1  0.78132200  0.06939600  0.62829500  1
  O  O108  1  0.78132200  0.56939600  0.87170500  1
  O  O109  1  0.71867800  0.06939600  0.12829500  1
  O  O110  1  0.28132200  0.43060400  0.62829500  1
  O  O111  1  0.21867800  0.93060400  0.37170500  1
  O  O112  1  0.81288600  0.89103900  0.91399800  1
  O  O113  1  0.68711400  0.39103900  0.08600200  1
  O  O114  1  0.31288600  0.10896100  0.58600200  1
  O  O115  1  0.18711400  0.60896100  0.41399800  1
  O  O116  1  0.18711400  0.10896100  0.08600200  1
  O  O117  1  0.31288600  0.60896100  0.91399800  1
  O  O118  1  0.68711400  0.89103900  0.41399800  1
  O  O119  1  0.81288600  0.39103900  0.58600200  1
