# generated using pymatgen
data_Bi2(SO4)3
_symmetry_space_group_name_H-M   'P 1'
_cell_length_a   9.35889993
_cell_length_b   9.35889993
_cell_length_c   9.35890029
_cell_angle_alpha   60.14010474
_cell_angle_beta   60.14010474
_cell_angle_gamma   60.14010002
_symmetry_Int_Tables_number   1
_chemical_formula_structural   Bi2(SO4)3
_chemical_formula_sum   'Bi4 S6 O24'
_cell_volume   581.48103556
_cell_formula_units_Z   2
loop_
 _symmetry_equiv_pos_site_id
 _symmetry_equiv_pos_as_xyz
  1  'x, y, z'
loop_
 _atom_site_type_symbol
 _atom_site_label
 _atom_site_symmetry_multiplicity
 _atom_site_fract_x
 _atom_site_fract_y
 _atom_site_fract_z
 _atom_site_occupancy
  Bi  Bi0  1  0.36037931  0.36037931  0.36037931  1
  Bi  Bi1  1  0.13962069  0.13962069  0.13962069  1
  Bi  Bi2  1  0.63962069  0.63962069  0.63962069  1
  Bi  Bi3  1  0.86037931  0.86037931  0.86037931  1
  S  S4  1  0.75000000  0.04551632  0.45448368  1
  S  S5  1  0.95448368  0.54551632  0.25000000  1
  S  S6  1  0.54551632  0.25000000  0.95448368  1
  S  S7  1  0.45448368  0.75000000  0.04551632  1
  S  S8  1  0.04551632  0.45448368  0.75000000  1
  S  S9  1  0.25000000  0.95448368  0.54551632  1
  O  O10  1  0.89362013  0.05845676  0.28529846  1
  O  O11  1  0.71470154  0.10637987  0.94154324  1
  O  O12  1  0.90820730  0.49420458  0.68921529  1
  O  O13  1  0.00579542  0.59179270  0.81078471  1
  O  O14  1  0.60637987  0.21470154  0.44154324  1
  O  O15  1  0.78529846  0.55845676  0.39362013  1
  O  O16  1  0.94154324  0.71470154  0.10637987  1
  O  O17  1  0.18921529  0.99420458  0.40820730  1
  O  O18  1  0.50579542  0.31078471  0.09179270  1
  O  O19  1  0.31078471  0.09179270  0.50579542  1
  O  O20  1  0.40820730  0.18921529  0.99420458  1
  O  O21  1  0.55845676  0.39362013  0.78529846  1
  O  O22  1  0.44154324  0.60637987  0.21470154  1
  O  O23  1  0.68921529  0.90820730  0.49420458  1
  O  O24  1  0.59179270  0.81078471  0.00579542  1
  O  O25  1  0.81078471  0.00579542  0.59179270  1
  O  O26  1  0.49420458  0.68921529  0.90820730  1
  O  O27  1  0.05845676  0.28529846  0.89362013  1
  O  O28  1  0.21470154  0.44154324  0.60637987  1
  O  O29  1  0.39362013  0.78529846  0.55845676  1
  O  O30  1  0.09179270  0.50579542  0.31078471  1
  O  O31  1  0.99420458  0.40820730  0.18921529  1
  O  O32  1  0.28529846  0.89362013  0.05845676  1
  O  O33  1  0.10637987  0.94154324  0.71470154  1
