# generated using pymatgen
data_Gd3Y13O24
_symmetry_space_group_name_H-M   'P 1'
_cell_length_a   9.20803025
_cell_length_b   9.22262505
_cell_length_c   9.22278153
_cell_angle_alpha   109.50681226
_cell_angle_beta   109.43952591
_cell_angle_gamma   109.43584102
_symmetry_Int_Tables_number   1
_chemical_formula_structural   Gd3Y13O24
_chemical_formula_sum   'Gd3 Y13 O24'
_cell_volume   603.15618780
_cell_formula_units_Z   1
loop_
 _symmetry_equiv_pos_site_id
 _symmetry_equiv_pos_as_xyz
  1  'x, y, z'
loop_
 _atom_site_type_symbol
 _atom_site_label
 _atom_site_symmetry_multiplicity
 _atom_site_fract_x
 _atom_site_fract_y
 _atom_site_fract_z
 _atom_site_occupancy
  Gd  Gd0  1  0.24975806  0.96845655  0.21867932  1
  Gd  Gd1  1  0.78222900  0.24946778  0.53209230  1
  Gd  Gd2  1  0.96779587  0.71854579  0.74954371  1
  Y  Y3  1  0.00019637  0.49930426  0.00099740  1
  Y  Y4  1  0.03235620  0.28312382  0.24988254  1
  Y  Y5  1  0.28331152  0.25197897  0.03296722  1
  Y  Y6  1  0.21807285  0.74978113  0.46786166  1
  Y  Y7  1  0.74982661  0.03268579  0.78326507  1
  Y  Y8  1  0.74965080  0.53293070  0.28094435  1
  Y  Y9  1  0.49909854  0.50149652  0.49966540  1
  Y  Y10  1  0.00022386  0.99978300  0.50012384  1
  Y  Y11  1  0.46759069  0.21783699  0.75141051  1
  Y  Y12  1  0.50050575  0.00001584  0.99920726  1
  Y  Y13  1  0.53238009  0.78134368  0.24896423  1
  Y  Y14  1  0.25094936  0.46697185  0.71742794  1
  Y  Y15  1  0.71605449  0.74953271  0.96700583  1
  O  O16  1  0.95773832  0.48905843  0.22848803  1
  O  O17  1  0.54297722  0.27110064  0.03184173  1
  O  O18  1  0.96590665  0.73651796  0.01100683  1
  O  O19  1  0.27113656  0.54275740  0.51133945  1
  O  O20  1  0.77145517  0.76151149  0.22892755  1
  O  O21  1  0.46839317  0.95759944  0.72955876  1
  O  O22  1  0.24003677  0.01145875  0.47203396  1
  O  O23  1  0.26134857  0.23316362  0.27223401  1
  O  O24  1  0.72965786  0.27179754  0.76402977  1
  O  O25  1  0.48948751  0.53204944  0.26041016  1
  O  O26  1  0.01029340  0.77130302  0.53868417  1
  O  O27  1  0.77110218  0.03196561  0.04276617  1
  O  O28  1  0.99223261  0.22762995  0.45759444  1
  O  O29  1  0.51047852  0.46760559  0.73818711  1
  O  O30  1  0.23175051  0.97243667  0.95780828  1
  O  O31  1  0.27103518  0.72608217  0.24008350  1
  O  O32  1  0.76017532  0.98609470  0.53155326  1
  O  O33  1  0.73570759  0.77053021  0.72859118  1
  O  O34  1  0.22826945  0.23927584  0.77111638  1
  O  O35  1  0.53139394  0.03864042  0.26693096  1
  O  O36  1  0.03133055  0.26053131  0.98917327  1
  O  O37  1  0.72553744  0.45778675  0.48583052  1
  O  O38  1  0.45755865  0.72887372  0.96739401  1
  O  O39  1  0.04500178  0.51097392  0.77437490  1
