# generated using pymatgen
data_PrOF
_symmetry_space_group_name_H-M   'P 1'
_cell_length_a   7.02491127
_cell_length_b   7.02491127
_cell_length_c   7.02491161
_cell_angle_alpha   33.08696030
_cell_angle_beta   33.08696030
_cell_angle_gamma   33.08695578
_symmetry_Int_Tables_number   1
_chemical_formula_structural   PrOF
_chemical_formula_sum   'Pr2 O2 F2'
_cell_volume   91.95510382
_cell_formula_units_Z   2
loop_
 _symmetry_equiv_pos_site_id
 _symmetry_equiv_pos_as_xyz
  1  'x, y, z'
loop_
 _atom_site_type_symbol
 _atom_site_label
 _atom_site_symmetry_multiplicity
 _atom_site_fract_x
 _atom_site_fract_y
 _atom_site_fract_z
 _atom_site_occupancy
  Pr  Pr0  1  0.24209220  0.24209220  0.24209220  1
  Pr  Pr1  1  0.75790780  0.75790780  0.75790780  1
  O  O2  1  0.12173679  0.12173679  0.12173679  1
  O  O3  1  0.87826321  0.87826321  0.87826321  1
  F  F4  1  0.36992466  0.36992466  0.36992466  1
  F  F5  1  0.63007534  0.63007534  0.63007534  1
