# generated using pymatgen
data_Cr2O3
_symmetry_space_group_name_H-M   'P 1'
_cell_length_a   8.03925767
_cell_length_b   9.28228689
_cell_length_c   9.28228937
_cell_angle_alpha   89.99752166
_cell_angle_beta   54.73463681
_cell_angle_gamma   54.73164730
_symmetry_Int_Tables_number   1
_chemical_formula_structural   Cr2O3
_chemical_formula_sum   'Cr16 O24'
_cell_volume   399.88146755
_cell_formula_units_Z   8
loop_
 _symmetry_equiv_pos_site_id
 _symmetry_equiv_pos_as_xyz
  1  'x, y, z'
loop_
 _atom_site_type_symbol
 _atom_site_label
 _atom_site_symmetry_multiplicity
 _atom_site_fract_x
 _atom_site_fract_y
 _atom_site_fract_z
 _atom_site_occupancy
  Cr  Cr0  1  0.99799575  0.00171935  0.00139444  1
  Cr  Cr1  1  0.99799917  0.00171646  0.50141858  1
  Cr  Cr2  1  0.99798322  0.50169612  0.00141245  1
  Cr  Cr3  1  0.99797720  0.50169093  0.50141628  1
  Cr  Cr4  1  0.99797689  0.25169927  0.29033460  1
  Cr  Cr5  1  0.99801739  0.25171768  0.79034871  1
  Cr  Cr6  1  0.49797912  0.54061391  0.75140769  1
  Cr  Cr7  1  0.49792943  0.46279062  0.25139428  1
  Cr  Cr8  1  0.42014274  0.29057182  0.04033908  1
  Cr  Cr9  1  0.42016041  0.79053421  0.54031093  1
  Cr  Cr10  1  0.57587268  0.71278361  0.96243624  1
  Cr  Cr11  1  0.57589728  0.21273674  0.46239404  1
  Cr  Cr12  1  0.49797053  0.96277817  0.25145229  1
  Cr  Cr13  1  0.49800933  0.04062568  0.75140541  1
  Cr  Cr14  1  0.99795377  0.75173864  0.71248952  1
  Cr  Cr15  1  0.99795391  0.75170848  0.21248647  1
  O  O16  1  0.18274496  0.54989647  0.27443501  1
  O  O17  1  0.18276962  0.76869596  0.77446072  1
  O  O18  1  0.18274843  0.04989892  0.54361553  1
  O  O19  1  0.18278800  0.26868588  0.04355418  1
  O  O20  1  0.26712628  0.95950260  0.22625219  1
  O  O21  1  0.26716869  0.27473070  0.72620831  1
  O  O22  1  0.26712221  0.77477082  0.00741249  1
  O  O23  1  0.26715273  0.45948576  0.50737737  1
  O  O24  1  0.27921355  0.99563880  0.76841952  1
  O  O25  1  0.27917531  0.22651170  0.26842869  1
  O  O26  1  0.27921218  0.49560780  0.95317261  1
  O  O27  1  0.27918714  0.72650436  0.45321367  1
  O  O28  1  0.71683393  0.77686195  0.73434303  1
  O  O29  1  0.71685609  0.00769562  0.23431782  1
  O  O30  1  0.71678054  0.27687350  0.54959612  1
  O  O31  1  0.71680475  0.50774393  0.04963819  1
  O  O32  1  0.72885510  0.72863757  0.27661257  1
  O  O33  1  0.72887591  0.04386426  0.77658504  1
  O  O34  1  0.72886489  0.22864311  0.99533744  1
  O  O35  1  0.72887637  0.54385615  0.49536294  1
  O  O36  1  0.81321677  0.45348349  0.72835858  1
  O  O37  1  0.81324182  0.23468646  0.22831919  1
  O  O38  1  0.81323554  0.73468613  0.95922138  1
  O  O39  1  0.81329436  0.95344835  0.45919540  1
