# generated using pymatgen
data_Be(GaO2)2
_symmetry_space_group_name_H-M   'P 1'
_cell_length_a   7.76789936
_cell_length_b   7.77002776
_cell_length_c   8.94880993
_cell_angle_alpha   90.02488102
_cell_angle_beta   89.98269775
_cell_angle_gamma   120.02664382
_symmetry_Int_Tables_number   1
_chemical_formula_structural   Be(GaO2)2
_chemical_formula_sum   'Be6 Ga12 O24'
_cell_volume   467.63323721
_cell_formula_units_Z   6
loop_
 _symmetry_equiv_pos_site_id
 _symmetry_equiv_pos_as_xyz
  1  'x, y, z'
loop_
 _atom_site_type_symbol
 _atom_site_label
 _atom_site_symmetry_multiplicity
 _atom_site_fract_x
 _atom_site_fract_y
 _atom_site_fract_z
 _atom_site_occupancy
  Be  Be0  1  0.89105175  0.16377633  0.57821046  1
  Be  Be1  1  0.83631518  0.72573271  0.24453533  1
  Be  Be2  1  0.27414020  0.11095740  0.91214749  1
  Be  Be3  1  0.06182332  0.55969818  0.08694488  1
  Be  Be4  1  0.49797792  0.93759878  0.41956897  1
  Be  Be5  1  0.44020957  0.50296227  0.75379428  1
  Ga  Ga6  1  0.92417186  0.17000352  0.91394960  1
  Ga  Ga7  1  0.89398550  0.15597424  0.25999855  1
  Ga  Ga8  1  0.82980215  0.75418246  0.58073470  1
  Ga  Ga9  1  0.84380344  0.73792824  0.92667928  1
  Ga  Ga10  1  0.26257420  0.10611040  0.59369404  1
  Ga  Ga11  1  0.24575526  0.07561190  0.24790161  1
  Ga  Ga12  1  0.07949960  0.56452405  0.75274601  1
  Ga  Ga13  1  0.07557254  0.58287520  0.40645900  1
  Ga  Ga14  1  0.48456982  0.92023121  0.08564399  1
  Ga  Ga15  1  0.50729977  0.92457221  0.73918985  1
  Ga  Ga16  1  0.43517193  0.51506251  0.41960178  1
  Ga  Ga17  1  0.41683095  0.49272051  0.07342004  1
  O  O18  1  0.97369769  0.30999523  0.43009328  1
  O  O19  1  0.97454270  0.31376613  0.08873876  1
  O  O20  1  0.94737447  0.29195170  0.73406653  1
  O  O21  1  0.68992471  0.66322306  0.09682188  1
  O  O22  1  0.70793867  0.65496729  0.40076522  1
  O  O23  1  0.68601490  0.66083789  0.75551227  1
  O  O24  1  0.97610906  0.97062173  0.24856348  1
  O  O25  1  0.02915126  0.00541975  0.91537623  1
  O  O26  1  0.99506832  0.02373869  0.58193628  1
  O  O27  1  0.99196420  0.61273636  0.92966583  1
  O  O28  1  0.99262982  0.63994835  0.23185960  1
  O  O29  1  0.01134225  0.66061951  0.58617916  1
  O  O30  1  0.34496216  0.05328411  0.06775071  1
  O  O31  1  0.33933965  0.02510431  0.42231369  1
  O  O32  1  0.33701839  0.02709650  0.76389109  1
  O  O33  1  0.30543490  0.65382336  0.08469189  1
  O  O34  1  0.34817537  0.69432409  0.41777288  1
  O  O35  1  0.34597898  0.65205736  0.75115497  1
  O  O36  1  0.64793420  0.00701497  0.56478857  1
  O  O37  1  0.62052029  0.00752498  0.26250013  1
  O  O38  1  0.64900483  0.98826376  0.91913390  1
  O  O39  1  0.38675297  0.37948114  0.59651755  1
  O  O40  1  0.33899104  0.35063102  0.25296398  1
  O  O41  1  0.35957524  0.35304359  0.89865925  1
