# generated using pymatgen
data_LiMn10(PO4)7
_symmetry_space_group_name_H-M   'P 1'
_cell_length_a   13.10836254
_cell_length_b   13.10836254
_cell_length_c   13.10836268
_cell_angle_alpha   46.02380790
_cell_angle_beta   46.02380790
_cell_angle_gamma   46.02380682
_symmetry_Int_Tables_number   1
_chemical_formula_structural   LiMn10(PO4)7
_chemical_formula_sum   'Li2 Mn20 P14 O56'
_cell_volume   1063.99327229
_cell_formula_units_Z   2
loop_
 _symmetry_equiv_pos_site_id
 _symmetry_equiv_pos_as_xyz
  1  'x, y, z'
loop_
 _atom_site_type_symbol
 _atom_site_label
 _atom_site_symmetry_multiplicity
 _atom_site_fract_x
 _atom_site_fract_y
 _atom_site_fract_z
 _atom_site_occupancy
  Li  Li0  1  0.18411600  0.18411600  0.18411600  1
  Li  Li1  1  0.68411600  0.68411600  0.68411600  1
  Mn  Mn2  1  0.06592200  0.65804500  0.07401500  1
  Mn  Mn3  1  0.06564700  0.44465300  0.47302900  1
  Mn  Mn4  1  0.44465300  0.47302900  0.06564700  1
  Mn  Mn5  1  0.00254800  0.00254800  0.00254800  1
  Mn  Mn6  1  0.07401500  0.06592200  0.65804500  1
  Mn  Mn7  1  0.47302900  0.06564700  0.44465300  1
  Mn  Mn8  1  0.40933500  0.85216400  0.44620000  1
  Mn  Mn9  1  0.65804500  0.07401500  0.06592200  1
  Mn  Mn10  1  0.15804500  0.56592200  0.57401500  1
  Mn  Mn11  1  0.56592200  0.57401500  0.15804500  1
  Mn  Mn12  1  0.50254800  0.50254800  0.50254800  1
  Mn  Mn13  1  0.44620000  0.40933500  0.85216400  1
  Mn  Mn14  1  0.85216400  0.44620000  0.40933500  1
  Mn  Mn15  1  0.57401500  0.15804500  0.56592200  1
  Mn  Mn16  1  0.35216400  0.90933500  0.94620000  1
  Mn  Mn17  1  0.56564700  0.97302900  0.94465300  1
  Mn  Mn18  1  0.90933500  0.94620000  0.35216400  1
  Mn  Mn19  1  0.97302900  0.94465300  0.56564700  1
  Mn  Mn20  1  0.94465300  0.56564700  0.97302900  1
  Mn  Mn21  1  0.94620000  0.35216400  0.90933500  1
  P  P22  1  0.26843800  0.26843800  0.26843800  1
  P  P23  1  0.27001400  0.83036000  0.31145700  1
  P  P24  1  0.18453700  0.68498900  0.23064100  1
  P  P25  1  0.18498900  0.68453700  0.73064100  1
  P  P26  1  0.33036000  0.77001400  0.81145700  1
  P  P27  1  0.68453700  0.73064100  0.18498900  1
  P  P28  1  0.77001400  0.81145700  0.33036000  1
  P  P29  1  0.31145700  0.27001400  0.83036000  1
  P  P30  1  0.23064100  0.18453700  0.68498900  1
  P  P31  1  0.68498900  0.23064100  0.18453700  1
  P  P32  1  0.81145700  0.33036000  0.77001400  1
  P  P33  1  0.83036000  0.31145700  0.27001400  1
  P  P34  1  0.73064100  0.18498900  0.68453700  1
  P  P35  1  0.76843800  0.76843800  0.76843800  1
  O  O36  1  0.16417100  0.62050000  0.18467000  1
  O  O37  1  0.10880900  0.39688700  0.25686600  1
  O  O38  1  0.31326100  0.31326100  0.31326100  1
  O  O39  1  0.18467000  0.16417100  0.62050000  1
  O  O40  1  0.39688700  0.25686600  0.10880900  1
  O  O41  1  0.25686600  0.10880900  0.39688700  1
  O  O42  1  0.09924700  0.84425700  0.40364700  1
  O  O43  1  0.11931500  0.86585700  0.15000000  1
  O  O44  1  0.11849900  0.86019200  0.67757100  1
  O  O45  1  0.14956400  0.86877700  0.87147600  1
  O  O46  1  0.26640800  0.91623000  0.35608400  1
  O  O47  1  0.62050000  0.18467000  0.16417100  1
  O  O48  1  0.09025600  0.63431100  0.40945400  1
  O  O49  1  0.33448600  0.90022200  0.13338100  1
  O  O50  1  0.12050000  0.66417100  0.68467000  1
  O  O51  1  0.40022200  0.83448600  0.63338100  1
  O  O52  1  0.13431100  0.59025600  0.90945400  1
  O  O53  1  0.59025600  0.90945400  0.13431100  1
  O  O54  1  0.59924700  0.90364700  0.34425700  1
  O  O55  1  0.36877700  0.64956400  0.37147600  1
  O  O56  1  0.36019200  0.61849900  0.17757100  1
  O  O57  1  0.36585700  0.61931500  0.65000000  1
  O  O58  1  0.34425700  0.59924700  0.90364700  1
  O  O59  1  0.13338100  0.33448600  0.90022200  1
  O  O60  1  0.17757100  0.36019200  0.61849900  1
  O  O61  1  0.66417100  0.68467000  0.12050000  1
  O  O62  1  0.61931500  0.65000000  0.36585700  1
  O  O63  1  0.86877700  0.87147600  0.14956400  1
  O  O64  1  0.37147600  0.36877700  0.64956400  1
  O  O65  1  0.15000000  0.11931500  0.86585700  1
  O  O66  1  0.35608400  0.26640800  0.91623000  1
  O  O67  1  0.86019200  0.67757100  0.11849900  1
  O  O68  1  0.83448600  0.63338100  0.40022200  1
  O  O69  1  0.63431100  0.40945400  0.09025600  1
  O  O70  1  0.63338100  0.40022200  0.83448600  1
  O  O71  1  0.65000000  0.36585700  0.61931500  1
  O  O72  1  0.64956400  0.37147600  0.36877700  1
  O  O73  1  0.40364700  0.09924700  0.84425700  1
  O  O74  1  0.40945400  0.09025600  0.63431100  1
  O  O75  1  0.84425700  0.40364700  0.09924700  1
  O  O76  1  0.61849900  0.17757100  0.36019200  1
  O  O77  1  0.91623000  0.35608400  0.26640800  1
  O  O78  1  0.67757100  0.11849900  0.86019200  1
  O  O79  1  0.90364700  0.34425700  0.59924700  1
  O  O80  1  0.68467000  0.12050000  0.66417100  1
  O  O81  1  0.41623000  0.76640800  0.85608400  1
  O  O82  1  0.87147600  0.14956400  0.86877700  1
  O  O83  1  0.86585700  0.15000000  0.11931500  1
  O  O84  1  0.90022200  0.13338100  0.33448600  1
  O  O85  1  0.90945400  0.13431100  0.59025600  1
  O  O86  1  0.60880900  0.75686600  0.89688700  1
  O  O87  1  0.75686600  0.89688700  0.60880900  1
  O  O88  1  0.76640800  0.85608400  0.41623000  1
  O  O89  1  0.81326100  0.81326100  0.81326100  1
  O  O90  1  0.89688700  0.60880900  0.75686600  1
  O  O91  1  0.85608400  0.41623000  0.76640800  1
