# generated using pymatgen
data_Bi2(SO4)3
_symmetry_space_group_name_H-M   'P 1'
_cell_length_a   9.56503083
_cell_length_b   9.56503083
_cell_length_c   9.56503091
_cell_angle_alpha   56.28623886
_cell_angle_beta   56.28623329
_cell_angle_gamma   56.28623957
_symmetry_Int_Tables_number   1
_chemical_formula_structural   Bi2(SO4)3
_chemical_formula_sum   'Bi4 S6 O24'
_cell_volume   565.62198783
_cell_formula_units_Z   2
loop_
 _symmetry_equiv_pos_site_id
 _symmetry_equiv_pos_as_xyz
  1  'x, y, z'
loop_
 _atom_site_type_symbol
 _atom_site_label
 _atom_site_symmetry_multiplicity
 _atom_site_fract_x
 _atom_site_fract_y
 _atom_site_fract_z
 _atom_site_occupancy
  Bi  Bi0  1  0.34960035  0.34960035  0.34960035  1
  Bi  Bi1  1  0.14211251  0.14211251  0.14211251  1
  Bi  Bi2  1  0.85788749  0.85788749  0.85788749  1
  Bi  Bi3  1  0.65039965  0.65039965  0.65039965  1
  S  S4  1  0.75571203  0.03005635  0.46180128  1
  S  S5  1  0.53819872  0.24428797  0.96994365  1
  S  S6  1  0.03005635  0.46180128  0.75571203  1
  S  S7  1  0.96994365  0.53819872  0.24428797  1
  S  S8  1  0.46180128  0.75571203  0.03005635  1
  S  S9  1  0.24428797  0.96994365  0.53819872  1
  O  O10  1  0.79926488  0.02747963  0.58898153  1
  O  O11  1  0.86166451  0.11726646  0.27573014  1
  O  O12  1  0.72426986  0.13833549  0.88273354  1
  O  O13  1  0.56300601  0.13007664  0.49321767  1
  O  O14  1  0.51352347  0.19602475  0.15668201  1
  O  O15  1  0.41101847  0.20073512  0.97252037  1
  O  O16  1  0.50678233  0.43699399  0.86992336  1
  O  O17  1  0.19602475  0.15668201  0.51352347  1
  O  O18  1  0.11726646  0.27573014  0.86166451  1
  O  O19  1  0.13007664  0.49321767  0.56300601  1
  O  O20  1  0.15668201  0.51352347  0.19602475  1
  O  O21  1  0.97252037  0.41101847  0.20073512  1
  O  O22  1  0.02747963  0.58898153  0.79926488  1
  O  O23  1  0.84331799  0.48647653  0.80397525  1
  O  O24  1  0.86992336  0.50678233  0.43699399  1
  O  O25  1  0.88273354  0.72426986  0.13833549  1
  O  O26  1  0.80397525  0.84331799  0.48647653  1
  O  O27  1  0.49321767  0.56300601  0.13007664  1
  O  O28  1  0.58898153  0.79926488  0.02747963  1
  O  O29  1  0.48647653  0.80397525  0.84331799  1
  O  O30  1  0.43699399  0.86992336  0.50678233  1
  O  O31  1  0.27573014  0.86166451  0.11726646  1
  O  O32  1  0.13833549  0.88273354  0.72426986  1
  O  O33  1  0.20073512  0.97252037  0.41101847  1
