# generated using pymatgen
data_LaAgO2
_symmetry_space_group_name_H-M   'P 1'
_cell_length_a   3.81644699
_cell_length_b   3.81648303
_cell_length_c   12.28119250
_cell_angle_alpha   90.00225298
_cell_angle_beta   89.99875144
_cell_angle_gamma   120.00023712
_symmetry_Int_Tables_number   1
_chemical_formula_structural   LaAgO2
_chemical_formula_sum   'La2 Ag2 O4'
_cell_volume   154.91472580
_cell_formula_units_Z   2
loop_
 _symmetry_equiv_pos_site_id
 _symmetry_equiv_pos_as_xyz
  1  'x, y, z'
loop_
 _atom_site_type_symbol
 _atom_site_label
 _atom_site_symmetry_multiplicity
 _atom_site_fract_x
 _atom_site_fract_y
 _atom_site_fract_z
 _atom_site_occupancy
  La  La0  1  0.00000759  0.00010774  0.99999814  1
  La  La1  1  0.99999648  0.99996376  0.50000254  1
  Ag  Ag2  1  0.33331967  0.66666673  0.24999999  1
  Ag  Ag3  1  0.66667524  0.33335169  0.74999977  1
  O  O4  1  0.33333004  0.66676169  0.08416111  1
  O  O5  1  0.33332477  0.66661578  0.41583910  1
  O  O6  1  0.66666963  0.33331731  0.58416325  1
  O  O7  1  0.66667758  0.33341629  0.91583610  1
