# generated using pymatgen
data_K2P2Pd
_symmetry_space_group_name_H-M   'P 1'
_cell_length_a   5.89100634
_cell_length_b   6.34055119
_cell_length_c   7.75570637
_cell_angle_alpha   114.12738546
_cell_angle_beta   90.00000000
_cell_angle_gamma   90.00000000
_symmetry_Int_Tables_number   1
_chemical_formula_structural   K2P2Pd
_chemical_formula_sum   'K4 P4 Pd2'
_cell_volume   264.38501713
_cell_formula_units_Z   2
loop_
 _symmetry_equiv_pos_site_id
 _symmetry_equiv_pos_as_xyz
  1  'x, y, z'
loop_
 _atom_site_type_symbol
 _atom_site_label
 _atom_site_symmetry_multiplicity
 _atom_site_fract_x
 _atom_site_fract_y
 _atom_site_fract_z
 _atom_site_occupancy
  K  K0  1  0.75000000  0.78909892  0.57819584  1
  K  K1  1  0.75000000  0.42344274  0.84688347  1
  K  K2  1  0.25000000  0.21090108  0.42180416  1
  K  K3  1  0.25000000  0.57655726  0.15311653  1
  P  P4  1  0.75000000  0.28120832  0.22190022  1
  P  P5  1  0.25000000  0.05930909  0.77809978  1
  P  P6  1  0.25000000  0.71879168  0.77809978  1
  P  P7  1  0.75000000  0.94069091  0.22190022  1
  Pd  Pd8  1  0.00000000  0.00000000  0.00000000  1
  Pd  Pd9  1  0.50000000  0.00000000  0.00000000  1
