# generated using pymatgen
data_Hg2W2O7
_symmetry_space_group_name_H-M   'P 1'
_cell_length_a   3.85226163
_cell_length_b   6.15175627
_cell_length_c   14.53699775
_cell_angle_alpha   75.19835941
_cell_angle_beta   90.00000000
_cell_angle_gamma   90.00000000
_symmetry_Int_Tables_number   1
_chemical_formula_structural   Hg2W2O7
_chemical_formula_sum   'Hg4 W4 O14'
_cell_volume   333.06843819
_cell_formula_units_Z   2
loop_
 _symmetry_equiv_pos_site_id
 _symmetry_equiv_pos_as_xyz
  1  'x, y, z'
loop_
 _atom_site_type_symbol
 _atom_site_label
 _atom_site_symmetry_multiplicity
 _atom_site_fract_x
 _atom_site_fract_y
 _atom_site_fract_z
 _atom_site_occupancy
  Hg  Hg0  1  0.66825229  0.35267090  0.06225787  1
  Hg  Hg1  1  0.33174771  0.35267090  0.56225787  1
  Hg  Hg2  1  0.66825229  0.64732910  0.43774213  1
  Hg  Hg3  1  0.33174771  0.64732910  0.93774213  1
  W  W4  1  0.97668340  0.81086466  0.68584010  1
  W  W5  1  0.97668340  0.18913534  0.81415990  1
  W  W6  1  0.02331660  0.81086466  0.18584010  1
  W  W7  1  0.02331660  0.18913534  0.31415990  1
  O  O8  1  0.01252589  0.79534936  0.56844351  1
  O  O9  1  0.49153218  0.18978356  0.30011405  1
  O  O10  1  0.02242461  0.50000000  0.75000000  1
  O  O11  1  0.98275133  0.13331861  0.16803089  1
  O  O12  1  0.01252589  0.20465064  0.93155649  1
  O  O13  1  0.98275133  0.86668139  0.33196911  1
  O  O14  1  0.50846782  0.18978356  0.80011405  1
  O  O15  1  0.49153218  0.81021644  0.19988595  1
  O  O16  1  0.01724867  0.13331861  0.66803089  1
  O  O17  1  0.98747411  0.79534936  0.06844351  1
  O  O18  1  0.01724867  0.86668139  0.83196911  1
  O  O19  1  0.97757539  0.50000000  0.25000000  1
  O  O20  1  0.50846782  0.81021644  0.69988595  1
  O  O21  1  0.98747411  0.20465064  0.43155649  1
