# generated using pymatgen
data_Na6ZnO4
_symmetry_space_group_name_H-M   'P 1'
_cell_length_a   7.51009814
_cell_length_b   7.51009913
_cell_length_c   5.80729433
_cell_angle_alpha   89.99999467
_cell_angle_beta   90.00001515
_cell_angle_gamma   120.00307290
_symmetry_Int_Tables_number   1
_chemical_formula_structural   Na6ZnO4
_chemical_formula_sum   'Na12 Zn2 O8'
_cell_volume   283.64968304
_cell_formula_units_Z   2
loop_
 _symmetry_equiv_pos_site_id
 _symmetry_equiv_pos_as_xyz
  1  'x, y, z'
loop_
 _atom_site_type_symbol
 _atom_site_label
 _atom_site_symmetry_multiplicity
 _atom_site_fract_x
 _atom_site_fract_y
 _atom_site_fract_z
 _atom_site_occupancy
  Na  Na0  1  0.92646741  0.46321662  0.13473430  1
  Na  Na1  1  0.46324938  0.53674992  0.63473218  1
  Na  Na2  1  0.14231565  0.85768439  0.96715706  1
  Na  Na3  1  0.28463091  0.14230681  0.46715800  1
  Na  Na4  1  0.85769315  0.71536871  0.46715818  1
  Na  Na5  1  0.14230676  0.28463119  0.96715834  1
  Na  Na6  1  0.71536927  0.85769331  0.96715816  1
  Na  Na7  1  0.85768420  0.14231558  0.46715663  1
  Na  Na8  1  0.53675035  0.46325009  0.13473197  1
  Na  Na9  1  0.07353330  0.53678394  0.63473407  1
  Na  Na10  1  0.46321600  0.92646669  0.63473409  1
  Na  Na11  1  0.53678338  0.07353308  0.13473410  1
  Zn  Zn12  1  0.66666922  0.33333094  0.74413806  1
  Zn  Zn13  1  0.33333116  0.66666900  0.24413801  1
  O  O14  1  0.18832296  0.81167712  0.35706768  1
  O  O15  1  0.37663987  0.18832014  0.85707244  1
  O  O16  1  0.33333686  0.66666304  0.90497859  1
  O  O17  1  0.66666314  0.33333695  0.40497838  1
  O  O18  1  0.81167709  0.18832272  0.85706795  1
  O  O19  1  0.62336017  0.81167983  0.35707259  1
  O  O20  1  0.18831962  0.37663984  0.35707252  1
  O  O21  1  0.81168016  0.62336011  0.85707270  1
