# generated using pymatgen
data_Li3Mn4(BO3)4
_symmetry_space_group_name_H-M   'P 1'
_cell_length_a   5.20701547
_cell_length_b   6.04300893
_cell_length_c   15.37674966
_cell_angle_alpha   79.73697285
_cell_angle_beta   87.62372810
_cell_angle_gamma   88.53547098
_symmetry_Int_Tables_number   1
_chemical_formula_structural   Li3Mn4(BO3)4
_chemical_formula_sum   'Li6 Mn8 B8 O24'
_cell_volume   475.61334830
_cell_formula_units_Z   2
loop_
 _symmetry_equiv_pos_site_id
 _symmetry_equiv_pos_as_xyz
  1  'x, y, z'
loop_
 _atom_site_type_symbol
 _atom_site_label
 _atom_site_symmetry_multiplicity
 _atom_site_fract_x
 _atom_site_fract_y
 _atom_site_fract_z
 _atom_site_occupancy
  Li  Li0  1  0.33118851  0.62029774  0.53344985  1
  Li  Li1  1  0.15845689  0.88726626  0.22759625  1
  Li  Li2  1  0.66881149  0.37970226  0.46655015  1
  Li  Li3  1  0.67706097  0.37465326  0.96971185  1
  Li  Li4  1  0.84154311  0.11273374  0.77240375  1
  Li  Li5  1  0.32293903  0.62534674  0.03028815  1
  Mn  Mn6  1  0.83801583  0.83532163  0.45889572  1
  Mn  Mn7  1  0.16198417  0.16467837  0.54110428  1
  Mn  Mn8  1  0.16885280  0.16854895  0.04064168  1
  Mn  Mn9  1  0.65736250  0.68004727  0.28261997  1
  Mn  Mn10  1  0.83114720  0.83145105  0.95935832  1
  Mn  Mn11  1  0.32621955  0.32225166  0.21783259  1
  Mn  Mn12  1  0.34263750  0.31995273  0.71738003  1
  Mn  Mn13  1  0.67378045  0.67774834  0.78216741  1
  B  B14  1  0.32790232  0.96574119  0.37935590  1
  B  B15  1  0.16801277  0.51180945  0.37358741  1
  B  B16  1  0.67209768  0.03425881  0.62064410  1
  B  B17  1  0.66964467  0.00722560  0.12370665  1
  B  B18  1  0.82583858  0.50375520  0.12766294  1
  B  B19  1  0.83198723  0.48819055  0.62641259  1
  B  B20  1  0.33035533  0.99277440  0.87629335  1
  B  B21  1  0.17416142  0.49624480  0.87233706  1
  O  O22  1  0.09369132  0.45113486  0.61817836  1
  O  O23  1  0.23012184  0.90502932  0.46615686  1
  O  O24  1  0.68844168  0.58412692  0.55689282  1
  O  O25  1  0.76987816  0.09497068  0.53384314  1
  O  O26  1  0.90630868  0.54886514  0.38182164  1
  O  O27  1  0.57771999  0.88971549  0.36157202  1
  O  O28  1  0.82403987  0.89199731  0.18727387  1
  O  O29  1  0.31155832  0.41587308  0.44310718  1
  O  O30  1  0.77820563  0.09210673  0.04065732  1
  O  O31  1  0.28847353  0.59515162  0.29170370  1
  O  O32  1  0.41093190  0.04321152  0.14155713  1
  O  O33  1  0.32281295  0.41399378  0.94301939  1
  O  O34  1  0.18306860  0.07995357  0.31537405  1
  O  O35  1  0.08376492  0.45433898  0.11590526  1
  O  O36  1  0.22179437  0.90789327  0.95934268  1
  O  O37  1  0.70566702  0.45222580  0.21197285  1
  O  O38  1  0.17596013  0.10800269  0.81272613  1
  O  O39  1  0.67718705  0.58600622  0.05698061  1
  O  O40  1  0.91623508  0.54566102  0.88409474  1
  O  O41  1  0.58906810  0.95678848  0.85844287  1
  O  O42  1  0.71152647  0.40484838  0.70829630  1
  O  O43  1  0.81693140  0.92004643  0.68462595  1
  O  O44  1  0.29433298  0.54777420  0.78802715  1
  O  O45  1  0.42228001  0.11028451  0.63842798  1
