# generated using pymatgen
data_Li4Co3P4O15
_symmetry_space_group_name_H-M   'P 1'
_cell_length_a   17.53134061
_cell_length_b   6.43659073
_cell_length_c   10.45728376
_cell_angle_alpha   90.00000000
_cell_angle_beta   90.00000000
_cell_angle_gamma   90.00000000
_symmetry_Int_Tables_number   1
_chemical_formula_structural   Li4Co3P4O15
_chemical_formula_sum   'Li16 Co12 P16 O60'
_cell_volume   1180.02148807
_cell_formula_units_Z   4
loop_
 _symmetry_equiv_pos_site_id
 _symmetry_equiv_pos_as_xyz
  1  'x, y, z'
loop_
 _atom_site_type_symbol
 _atom_site_label
 _atom_site_symmetry_multiplicity
 _atom_site_fract_x
 _atom_site_fract_y
 _atom_site_fract_z
 _atom_site_occupancy
  Li  Li0  1  0.00563032  0.32247312  0.47976050  1
  Li  Li1  1  0.03456680  0.19495008  0.04938783  1
  Li  Li2  1  0.09641785  0.93854198  0.81844442  1
  Li  Li3  1  0.20324466  0.36585667  0.24386539  1
  Li  Li4  1  0.29675534  0.86585667  0.74386539  1
  Li  Li5  1  0.40358215  0.43854198  0.31844442  1
  Li  Li6  1  0.46543320  0.69495008  0.54938783  1
  Li  Li7  1  0.49436968  0.82247312  0.97976050  1
  Li  Li8  1  0.50563032  0.32247312  0.02023950  1
  Li  Li9  1  0.53456580  0.19495008  0.45061217  1
  Li  Li10  1  0.59641785  0.93854198  0.68155558  1
  Li  Li11  1  0.70324466  0.36585667  0.25613461  1
  Li  Li12  1  0.79675534  0.86585667  0.75613461  1
  Li  Li13  1  0.90358215  0.43854198  0.18155558  1
  Li  Li14  1  0.96543420  0.69495008  0.95061217  1
  Li  Li15  1  0.99436968  0.82247312  0.52023950  1
  Co  Co16  1  0.13426892  0.59275409  0.49499978  1
  Co  Co17  1  0.16576115  0.59996703  0.00041733  1
  Co  Co18  1  0.24047117  0.32567188  0.74179199  1
  Co  Co19  1  0.25952883  0.82567188  0.24179199  1
  Co  Co20  1  0.33423885  0.09996703  0.50041733  1
  Co  Co21  1  0.36573108  0.09275409  0.99499978  1
  Co  Co22  1  0.63426892  0.59275409  0.00500022  1
  Co  Co23  1  0.66576115  0.59996703  0.49958267  1
  Co  Co24  1  0.74047117  0.32567188  0.75820801  1
  Co  Co25  1  0.75952883  0.82567188  0.25820801  1
  Co  Co26  1  0.83423885  0.09996703  0.99958267  1
  Co  Co27  1  0.86573108  0.09275409  0.50500022  1
  P  P28  1  0.04939950  0.63371318  0.22551737  1
  P  P29  1  0.06184301  0.45998335  0.75973961  1
  P  P30  1  0.17295907  0.08892995  0.48088947  1
  P  P31  1  0.20532791  0.09748109  0.00411011  1
  P  P32  1  0.29467209  0.59748109  0.50411011  1
  P  P33  1  0.32704093  0.58892995  0.98088947  1
  P  P34  1  0.43815699  0.95998335  0.25973961  1
  P  P35  1  0.45060050  0.13371318  0.72551737  1
  P  P36  1  0.54939950  0.63371318  0.27448263  1
  P  P37  1  0.56184301  0.45998335  0.74026039  1
  P  P38  1  0.67295907  0.08892995  0.01911053  1
  P  P39  1  0.70532791  0.09748109  0.49588989  1
  P  P40  1  0.79467209  0.59748109  0.99588989  1
  P  P41  1  0.82704093  0.58892995  0.51911053  1
  P  P42  1  0.93815699  0.95998335  0.24026039  1
  P  P43  1  0.95060050  0.13371318  0.77448263  1
  O  O44  1  0.00582899  0.49579792  0.13112294  1
  O  O45  1  0.02077518  0.87141186  0.19095903  1
  O  O46  1  0.03127090  0.59768214  0.36739727  1
  O  O47  1  0.04631311  0.55829221  0.62836401  1
  O  O48  1  0.07881346  0.62590303  0.86216595  1
  O  O49  1  0.11875640  0.28112974  0.76051055  1
  O  O50  1  0.12020194  0.90161259  0.50219554  1
  O  O51  1  0.13500137  0.63216882  0.19709531  1
  O  O52  1  0.12419949  0.28419444  0.45577453  1
  O  O53  1  0.15142021  0.91476269  0.98077632  1
  O  O54  1  0.15455672  0.28613653  0.03947153  1
  O  O55  1  0.22895671  0.11134344  0.59819743  1
  O  O56  1  0.23037954  0.06859747  0.36517041  1
  O  O57  1  0.23495084  0.56416301  0.61349653  1
  O  O58  1  0.24170777  0.62216170  0.38366229  1
  O  O59  1  0.25829223  0.12216170  0.88366229  1
  O  O60  1  0.26504916  0.06416301  0.11349653  1
  O  O61  1  0.26962046  0.56859747  0.86517041  1
  O  O62  1  0.27104329  0.61134344  0.09819743  1
  O  O63  1  0.34544328  0.78613653  0.53947153  1
  O  O64  1  0.34857979  0.41476269  0.48077632  1
  O  O65  1  0.37580051  0.78419444  0.95577453  1
  O  O66  1  0.36499863  0.13216882  0.69709531  1
  O  O67  1  0.37979806  0.40161259  0.00219554  1
  O  O68  1  0.38124360  0.78112974  0.26051055  1
  O  O69  1  0.42118654  0.12590303  0.36216595  1
  O  O70  1  0.45368689  0.05829221  0.12836401  1
  O  O71  1  0.46872910  0.09768214  0.86739727  1
  O  O72  1  0.47922482  0.37141186  0.69095903  1
  O  O73  1  0.49417101  0.99579792  0.63112294  1
  O  O74  1  0.50582899  0.49579792  0.36887706  1
  O  O75  1  0.52077518  0.87141186  0.30904097  1
  O  O76  1  0.53127090  0.59768214  0.13260273  1
  O  O77  1  0.54631311  0.55829221  0.87163599  1
  O  O78  1  0.57881346  0.62590303  0.63783405  1
  O  O79  1  0.61875640  0.28112974  0.73948945  1
  O  O80  1  0.62020194  0.90161259  0.99780446  1
  O  O81  1  0.63500137  0.63216882  0.30290469  1
  O  O82  1  0.62419949  0.28419444  0.04422547  1
  O  O83  1  0.65142021  0.91476269  0.51922368  1
  O  O84  1  0.65455672  0.28613653  0.46052847  1
  O  O85  1  0.72895671  0.11134344  0.90180257  1
  O  O86  1  0.73037954  0.06859747  0.13482959  1
  O  O87  1  0.73495084  0.56416301  0.88650347  1
  O  O88  1  0.74170777  0.62216170  0.11633771  1
  O  O89  1  0.75829223  0.12216170  0.61633771  1
  O  O90  1  0.76504916  0.06416301  0.38650347  1
  O  O91  1  0.76962046  0.56859747  0.63482959  1
  O  O92  1  0.77104329  0.61134344  0.40180257  1
  O  O93  1  0.84544328  0.78613653  0.96052847  1
  O  O94  1  0.84857979  0.41476269  0.01922368  1
  O  O95  1  0.87580051  0.78419444  0.54422547  1
  O  O96  1  0.86499863  0.13216882  0.80290469  1
  O  O97  1  0.87979806  0.40161259  0.49780446  1
  O  O98  1  0.88124360  0.78112974  0.23948945  1
  O  O99  1  0.92118654  0.12590303  0.13783405  1
  O  O100  1  0.95368689  0.05829221  0.37163599  1
  O  O101  1  0.96872910  0.09768214  0.63260273  1
  O  O102  1  0.97922482  0.37141186  0.80904097  1
  O  O103  1  0.99417101  0.99579792  0.86887706  1
