# generated using pymatgen
data_K2AlPCO7
_symmetry_space_group_name_H-M   'P 1'
_cell_length_a   6.51924476
_cell_length_b   5.40468177
_cell_length_c   9.50105399
_cell_angle_alpha   90.17399278
_cell_angle_beta   90.00000000
_cell_angle_gamma   90.00000000
_symmetry_Int_Tables_number   1
_chemical_formula_structural   K2AlPCO7
_chemical_formula_sum   'K4 Al2 P2 C2 O14'
_cell_volume   334.76280461
_cell_formula_units_Z   2
loop_
 _symmetry_equiv_pos_site_id
 _symmetry_equiv_pos_as_xyz
  1  'x, y, z'
loop_
 _atom_site_type_symbol
 _atom_site_label
 _atom_site_symmetry_multiplicity
 _atom_site_fract_x
 _atom_site_fract_y
 _atom_site_fract_z
 _atom_site_occupancy
  K  K0  1  0.02857300  0.24407094  0.75660926  1
  K  K1  1  0.47142700  0.24407094  0.75660926  1
  K  K2  1  0.52857300  0.75592906  0.24339074  1
  K  K3  1  0.97142700  0.75592906  0.24339074  1
  Al  Al4  1  0.75000000  0.76571588  0.64240411  1
  Al  Al5  1  0.25000000  0.23428412  0.35759589  1
  P  P6  1  0.25000000  0.73275973  0.56228099  1
  P  P7  1  0.75000000  0.26724027  0.43771901  1
  C  C8  1  0.75000000  0.72914734  0.89099592  1
  C  C9  1  0.25000000  0.27085266  0.10900408  1
  O  O10  1  0.25000000  0.29582852  0.97946547  1
  O  O11  1  0.75000000  0.93997423  0.82335922  1
  O  O12  1  0.75000000  0.54490290  0.79960731  1
  O  O13  1  0.05573780  0.76287011  0.65152988  1
  O  O14  1  0.44426220  0.76287011  0.65152988  1
  O  O15  1  0.75000000  0.06986676  0.55443781  1
  O  O16  1  0.25000000  0.46930252  0.49781494  1
  O  O17  1  0.75000000  0.53069748  0.50218506  1
  O  O18  1  0.25000000  0.93013324  0.44556219  1
  O  O19  1  0.55573780  0.23712989  0.34847012  1
  O  O20  1  0.94426220  0.23712989  0.34847012  1
  O  O21  1  0.25000000  0.45509710  0.20039269  1
  O  O22  1  0.25000000  0.06002577  0.17664078  1
  O  O23  1  0.75000000  0.70417148  0.02053453  1
