# generated using pymatgen
data_CaSiSnO5
_symmetry_space_group_name_H-M   'P 1'
_cell_length_a   7.25869900
_cell_length_b   5.63789961
_cell_length_c   5.62448095
_cell_angle_alpha   106.09956736
_cell_angle_beta   103.70907362
_cell_angle_gamma   103.90871486
_symmetry_Int_Tables_number   1
_chemical_formula_structural   CaSiSnO5
_chemical_formula_sum   'Ca2 Si2 Sn2 O10'
_cell_volume   202.96706187
_cell_formula_units_Z   2
loop_
 _symmetry_equiv_pos_site_id
 _symmetry_equiv_pos_as_xyz
  1  'x, y, z'
loop_
 _atom_site_type_symbol
 _atom_site_label
 _atom_site_symmetry_multiplicity
 _atom_site_fract_x
 _atom_site_fract_y
 _atom_site_fract_z
 _atom_site_occupancy
  Ca  Ca0  1  0.16009300  0.75420500  0.83799800  1
  Ca  Ca1  1  0.83990700  0.24579500  0.16200200  1
  Si  Si2  1  0.18324700  0.25072700  0.81792400  1
  Si  Si3  1  0.81675300  0.74927300  0.18207600  1
  Sn  Sn4  1  0.50000000  0.50000000  0.50000000  1
  Sn  Sn5  1  0.50000000  0.00000000  0.50000000  1
  O  O6  1  0.58898300  0.24948700  0.40942800  1
  O  O7  1  0.41101700  0.75051300  0.59057200  1
  O  O8  1  0.89523900  0.08680200  0.75824900  1
  O  O9  1  0.10476100  0.91319800  0.24175100  1
  O  O10  1  0.24034500  0.41226700  0.10649600  1
  O  O11  1  0.75965500  0.58773300  0.89350400  1
  O  O12  1  0.82323200  0.62987000  0.39897900  1
  O  O13  1  0.17676800  0.37013000  0.60102100  1
  O  O14  1  0.59926500  0.86932600  0.17558500  1
  O  O15  1  0.40073500  0.13067400  0.82441500  1
