# generated using pymatgen
data_LaAgO2
_symmetry_space_group_name_H-M   'P 1'
_cell_length_a   3.81518980
_cell_length_b   6.52520054
_cell_length_c   3.81519026
_cell_angle_alpha   106.99826529
_cell_angle_beta   59.99998616
_cell_angle_gamma   106.99827306
_symmetry_Int_Tables_number   1
_chemical_formula_structural   LaAgO2
_chemical_formula_sum   'La1 Ag1 O2'
_cell_volume   77.42572969
_cell_formula_units_Z   1
loop_
 _symmetry_equiv_pos_site_id
 _symmetry_equiv_pos_as_xyz
  1  'x, y, z'
loop_
 _atom_site_type_symbol
 _atom_site_label
 _atom_site_symmetry_multiplicity
 _atom_site_fract_x
 _atom_site_fract_y
 _atom_site_fract_z
 _atom_site_occupancy
  La  La0  1  0.50000000  0.50000000  0.50000000  1
  Ag  Ag1  1  0.00000000  0.00000000  0.00000000  1
  O  O2  1  0.11051397  0.33154390  0.11051397  1
  O  O3  1  0.88948603  0.66845610  0.88948603  1
