# generated using pymatgen
data_C2SeNClO2
_symmetry_space_group_name_H-M   'P 1'
_cell_length_a   11.49988900
_cell_length_b   7.68598700
_cell_length_c   7.96052259
_cell_angle_alpha   70.10127140
_cell_angle_beta   90.00000000
_cell_angle_gamma   90.00000000
_symmetry_Int_Tables_number   1
_chemical_formula_structural   C2SeNClO2
_chemical_formula_sum   'C8 Se4 N4 Cl4 O8'
_cell_volume   661.60581526
_cell_formula_units_Z   4
loop_
 _symmetry_equiv_pos_site_id
 _symmetry_equiv_pos_as_xyz
  1  'x, y, z'
loop_
 _atom_site_type_symbol
 _atom_site_label
 _atom_site_symmetry_multiplicity
 _atom_site_fract_x
 _atom_site_fract_y
 _atom_site_fract_z
 _atom_site_occupancy
  C  C0  1  0.63118200  0.42234900  0.21877700  1
  C  C1  1  0.13118200  0.57765100  0.28122300  1
  C  C2  1  0.36881800  0.57765100  0.78122300  1
  C  C3  1  0.86881800  0.42234900  0.71877700  1
  C  C4  1  0.65298800  0.60659600  0.21792700  1
  C  C5  1  0.15298800  0.39340400  0.28207300  1
  C  C6  1  0.34701200  0.39340400  0.78207300  1
  C  C7  1  0.84701200  0.60659600  0.71792700  1
  Se  Se8  1  0.56616200  0.19492900  0.43937500  1
  Se  Se9  1  0.06616200  0.80507100  0.06062500  1
  Se  Se10  1  0.43383800  0.80507100  0.56062500  1
  Se  Se11  1  0.93383800  0.19492900  0.93937500  1
  N  N12  1  0.67137900  0.75644400  0.21616500  1
  N  N13  1  0.17137900  0.24355600  0.28383400  1
  N  N14  1  0.32862100  0.24355600  0.78383400  1
  N  N15  1  0.82862100  0.75644400  0.71616600  1
  Cl  Cl16  1  0.86709100  0.14010400  0.22052100  1
  Cl  Cl17  1  0.36709100  0.85989600  0.27947900  1
  Cl  Cl18  1  0.13290900  0.85989600  0.77947900  1
  Cl  Cl19  1  0.63290900  0.14010400  0.72052100  1
  O  O20  1  0.62429300  0.37256400  0.09079600  1
  O  O21  1  0.12429300  0.62743600  0.40920400  1
  O  O22  1  0.37570700  0.62743600  0.90920400  1
  O  O23  1  0.87570700  0.37256400  0.59079600  1
  O  O24  1  0.43613700  0.28560600  0.43970500  1
  O  O25  1  0.93613700  0.71439400  0.06029500  1
  O  O26  1  0.56386300  0.71439400  0.56029500  1
  O  O27  1  0.06386300  0.28560600  0.93970500  1
