# generated using pymatgen
data_LaMgI5
_symmetry_space_group_name_H-M   'P 1'
_cell_length_a   4.34840538
_cell_length_b   15.02479776
_cell_length_c   17.46301179
_cell_angle_alpha   90.00000000
_cell_angle_beta   90.00000000
_cell_angle_gamma   90.00000000
_symmetry_Int_Tables_number   1
_chemical_formula_structural   LaMgI5
_chemical_formula_sum   'La4 Mg4 I20'
_cell_volume   1140.92686529
_cell_formula_units_Z   4
loop_
 _symmetry_equiv_pos_site_id
 _symmetry_equiv_pos_as_xyz
  1  'x, y, z'
loop_
 _atom_site_type_symbol
 _atom_site_label
 _atom_site_symmetry_multiplicity
 _atom_site_fract_x
 _atom_site_fract_y
 _atom_site_fract_z
 _atom_site_occupancy
  La  La0  1  0.75000000  0.74151048  0.15616191  1
  La  La1  1  0.25000000  0.24151048  0.34383809  1
  La  La2  1  0.75000000  0.75848952  0.65616191  1
  La  La3  1  0.25000000  0.25848952  0.84383809  1
  Mg  Mg4  1  0.75000000  0.24242742  0.09263083  1
  Mg  Mg5  1  0.25000000  0.74242742  0.40736917  1
  Mg  Mg6  1  0.75000000  0.25757258  0.59263083  1
  Mg  Mg7  1  0.25000000  0.75757258  0.90736917  1
  I  I8  1  0.25000000  0.34958017  0.02603487  1
  I  I9  1  0.25000000  0.86000285  0.05134154  1
  I  I10  1  0.25000000  0.58980478  0.15545052  1
  I  I11  1  0.25000000  0.13740463  0.15989514  1
  I  I12  1  0.75000000  0.35100504  0.23386860  1
  I  I13  1  0.25000000  0.85100504  0.26613140  1
  I  I14  1  0.75000000  0.63740463  0.34010486  1
  I  I15  1  0.75000000  0.08980478  0.34454948  1
  I  I16  1  0.75000000  0.36000285  0.44865846  1
  I  I17  1  0.75000000  0.84958017  0.47396513  1
  I  I18  1  0.25000000  0.15041983  0.52603487  1
  I  I19  1  0.25000000  0.63999715  0.55134154  1
  I  I20  1  0.25000000  0.91019522  0.65545052  1
  I  I21  1  0.25000000  0.36259537  0.65989514  1
  I  I22  1  0.75000000  0.14899496  0.73386860  1
  I  I23  1  0.25000000  0.64899496  0.76613140  1
  I  I24  1  0.75000000  0.86259537  0.84010486  1
  I  I25  1  0.75000000  0.41019522  0.84454948  1
  I  I26  1  0.75000000  0.13999715  0.94865846  1
  I  I27  1  0.75000000  0.65041983  0.97396513  1
