# generated using pymatgen
data_BaSiO3
_symmetry_space_group_name_H-M   'P 1'
_cell_length_a   7.51985619
_cell_length_b   7.51985619
_cell_length_c   11.38692840
_cell_angle_alpha   71.26487481
_cell_angle_beta   71.26487481
_cell_angle_gamma   60.14571229
_symmetry_Int_Tables_number   1
_chemical_formula_structural   BaSiO3
_chemical_formula_sum   'Ba6 Si6 O18'
_cell_volume   518.56969434
_cell_formula_units_Z   6
loop_
 _symmetry_equiv_pos_site_id
 _symmetry_equiv_pos_as_xyz
  1  'x, y, z'
loop_
 _atom_site_type_symbol
 _atom_site_label
 _atom_site_symmetry_multiplicity
 _atom_site_fract_x
 _atom_site_fract_y
 _atom_site_fract_z
 _atom_site_occupancy
  Ba  Ba0  1  0.00000000  0.50000000  0.50000000  1
  Ba  Ba1  1  0.32567384  0.84987659  0.50094762  1
  Ba  Ba2  1  0.15012341  0.67432616  0.99905238  1
  Ba  Ba3  1  0.84987659  0.32567384  0.00094762  1
  Ba  Ba4  1  0.67432616  0.15012341  0.49905238  1
  Ba  Ba5  1  0.50000000  0.00000000  -0.00000000  1
  Si  Si6  1  0.58180522  0.65538677  0.75350167  1
  Si  Si7  1  0.82039987  0.17960013  0.75000000  1
  Si  Si8  1  0.65538677  0.58180522  0.25350167  1
  Si  Si9  1  0.34461323  0.41819478  0.74649833  1
  Si  Si10  1  0.17960013  0.82039987  0.25000000  1
  Si  Si11  1  0.41819478  0.34461323  0.24649833  1
  O  O12  1  0.62639852  0.80211383  0.62177525  1
  O  O13  1  0.53744326  0.71212522  0.88687685  1
  O  O14  1  0.78436810  0.41704377  0.75185546  1
  O  O15  1  0.80211383  0.62639852  0.12177525  1
  O  O16  1  0.71212522  0.53744326  0.38687685  1
  O  O17  1  0.96788579  0.12114174  0.61787377  1
  O  O18  1  0.38051944  0.61948056  0.75000000  1
  O  O19  1  0.87885826  0.03211421  0.88212623  1
  O  O20  1  0.41704377  0.78436810  0.25185546  1
  O  O21  1  0.58295623  0.21563190  0.74814454  1
  O  O22  1  0.12114174  0.96788579  0.11787377  1
  O  O23  1  0.61948056  0.38051944  0.25000000  1
  O  O24  1  0.03211421  0.87885826  0.38212623  1
  O  O25  1  0.28787478  0.46255674  0.61312315  1
  O  O26  1  0.19788617  0.37360148  0.87822475  1
  O  O27  1  0.21563190  0.58295623  0.24814454  1
  O  O28  1  0.46255674  0.28787478  0.11312315  1
  O  O29  1  0.37360148  0.19788617  0.37822475  1
