# generated using pymatgen
data_K3VPCO7
_symmetry_space_group_name_H-M   'P 1'
_cell_length_a   5.69821923
_cell_length_b   9.68958954
_cell_length_c   6.99911600
_cell_angle_alpha   89.99986944
_cell_angle_beta   89.99997366
_cell_angle_gamma   89.98180614
_symmetry_Int_Tables_number   1
_chemical_formula_structural   K3VPCO7
_chemical_formula_sum   'K6 V2 P2 C2 O14'
_cell_volume   386.44500995
_cell_formula_units_Z   2
loop_
 _symmetry_equiv_pos_site_id
 _symmetry_equiv_pos_as_xyz
  1  'x, y, z'
loop_
 _atom_site_type_symbol
 _atom_site_label
 _atom_site_symmetry_multiplicity
 _atom_site_fract_x
 _atom_site_fract_y
 _atom_site_fract_z
 _atom_site_occupancy
  K  K0  1  0.75815200  0.07246500  0.25000000  1
  K  K1  1  0.24188600  0.92752900  0.74999900  1
  K  K2  1  0.25641500  0.28670100  0.01017800  1
  K  K3  1  0.25641400  0.28670100  0.48982300  1
  K  K4  1  0.74357100  0.71328400  0.51017400  1
  K  K5  1  0.74357000  0.71328600  0.98982300  1
  V  V6  1  0.23753900  0.65170200  0.25000000  1
  V  V7  1  0.76240600  0.34828600  0.75000000  1
  P  P8  1  0.73112800  0.41762700  0.25000000  1
  P  P9  1  0.26885200  0.58237900  0.75000000  1
  C  C10  1  0.74213500  0.07921300  0.75000000  1
  C  C11  1  0.25791200  0.92083300  0.25000000  1
  O  O12  1  0.26458500  0.05358100  0.24999900  1
  O  O13  1  0.73546600  0.94639400  0.74999900  1
  O  O14  1  0.94160200  0.14687200  0.75000100  1
  O  O15  1  0.05840500  0.85313600  0.25000000  1
  O  O16  1  0.54977600  0.15421100  0.75000100  1
  O  O17  1  0.45025000  0.84577300  0.25000000  1
  O  O18  1  0.47763800  0.47842700  0.25000000  1
  O  O19  1  0.52235500  0.52159400  0.75000000  1
  O  O20  1  0.08598900  0.46395500  0.75000000  1
  O  O21  1  0.91400600  0.53604200  0.25000000  1
  O  O22  1  0.76310000  0.32444200  0.06946100  1
  O  O23  1  0.76310000  0.32444200  0.43054100  1
  O  O24  1  0.23687300  0.67556300  0.56946100  1
  O  O25  1  0.23687400  0.67556300  0.93053900  1
