# generated using pymatgen
data_Ba2Mg3H10
_symmetry_space_group_name_H-M   'P 1'
_cell_length_a   9.44990165
_cell_length_b   9.44990165
_cell_length_c   7.86371561
_cell_angle_alpha   69.16747279
_cell_angle_beta   69.16747279
_cell_angle_gamma   36.07487587
_symmetry_Int_Tables_number   1
_chemical_formula_structural   Ba2Mg3H10
_chemical_formula_sum   'Ba4 Mg6 H20'
_cell_volume   383.49358070
_cell_formula_units_Z   2
loop_
 _symmetry_equiv_pos_site_id
 _symmetry_equiv_pos_as_xyz
  1  'x, y, z'
loop_
 _atom_site_type_symbol
 _atom_site_label
 _atom_site_symmetry_multiplicity
 _atom_site_fract_x
 _atom_site_fract_y
 _atom_site_fract_z
 _atom_site_occupancy
  Ba  Ba0  1  0.28557460  0.28557460  0.30551687  1
  Ba  Ba1  1  0.71442540  0.71442540  0.69448313  1
  Ba  Ba2  1  0.38509961  0.38509961  0.72354572  1
  Ba  Ba3  1  0.61490039  0.61490039  0.27645428  1
  Mg  Mg4  1  0.07339689  0.07339689  0.55459286  1
  Mg  Mg5  1  0.92660311  0.92660311  0.44540714  1
  Mg  Mg6  1  0.17314252  0.17314252  0.98822887  1
  Mg  Mg7  1  0.82685748  0.82685748  0.01177113  1
  Mg  Mg8  1  0.74532363  0.25467637  0.00000000  1
  Mg  Mg9  1  0.25467637  0.74532363  0.00000000  1
  H  H10  1  0.85054417  0.36797822  0.98350039  1
  H  H11  1  0.36797822  0.85054417  0.98350039  1
  H  H12  1  0.14945583  0.63202178  0.01649961  1
  H  H13  1  0.63202178  0.14945583  0.01649961  1
  H  H14  1  0.91453991  0.38559544  0.51561083  1
  H  H15  1  0.38559544  0.91453991  0.51561083  1
  H  H16  1  0.08546009  0.61440456  0.48438917  1
  H  H17  1  0.61440456  0.08546009  0.48438917  1
  H  H18  1  0.02323982  0.02323982  0.82307043  1
  H  H19  1  0.97676018  0.97676018  0.17692957  1
  H  H20  1  0.13473084  0.13473084  0.25487774  1
  H  H21  1  0.86526916  0.86526916  0.74512226  1
  H  H22  1  0.23211973  0.23211973  0.72744684  1
  H  H23  1  0.76788027  0.76788027  0.27255316  1
  H  H24  1  0.52346593  0.52346593  0.82003512  1
  H  H25  1  0.47653407  0.47653407  0.17996488  1
  H  H26  1  0.78189989  0.21810011  0.50000000  1
  H  H27  1  0.21810011  0.78189989  0.50000000  1
  H  H28  1  -0.00000000  0.50000000  0.00000000  1
  H  H29  1  0.50000000  0.00000000  0.00000000  1
