# generated using pymatgen
data_CeZr11O24
_symmetry_space_group_name_H-M   'P 1'
_cell_length_a   6.84619503
_cell_length_b   7.39387209
_cell_length_c   9.59771429
_cell_angle_alpha   93.20753518
_cell_angle_beta   91.60590142
_cell_angle_gamma   116.46023385
_symmetry_Int_Tables_number   1
_chemical_formula_structural   CeZr11O24
_chemical_formula_sum   'Ce1 Zr11 O24'
_cell_volume   433.49683739
_cell_formula_units_Z   1
loop_
 _symmetry_equiv_pos_site_id
 _symmetry_equiv_pos_as_xyz
  1  'x, y, z'
loop_
 _atom_site_type_symbol
 _atom_site_label
 _atom_site_symmetry_multiplicity
 _atom_site_fract_x
 _atom_site_fract_y
 _atom_site_fract_z
 _atom_site_occupancy
  Ce  Ce0  1  0.92621309  0.83191917  0.63365567  1
  Zr  Zr1  1  0.22242861  0.95261845  0.01365423  1
  Zr  Zr2  1  0.11671228  0.71639278  0.32231878  1
  Zr  Zr3  1  0.74620706  0.50712057  0.03603487  1
  Zr  Zr4  1  0.55016274  0.61657263  0.33913998  1
  Zr  Zr5  1  0.41595954  0.83800899  0.70584699  1
  Zr  Zr6  1  0.07978602  0.17573007  0.36657825  1
  Zr  Zr7  1  0.58869268  0.16220333  0.29874861  1
  Zr  Zr8  1  0.44549164  0.38180149  0.65901243  1
  Zr  Zr9  1  0.25365352  0.49386296  0.96486479  1
  Zr  Zr10  1  0.88027656  0.28413649  0.67578967  1
  Zr  Zr11  1  0.78253973  0.05052710  0.99433099  1
  O  O12  1  0.11303431  0.65458397  0.09065832  1
  O  O13  1  0.46983730  0.85359363  0.31372624  1
  O  O14  1  0.86611323  0.81364693  0.01485510  1
  O  O15  1  0.19504540  0.78475108  0.53392647  1
  O  O16  1  0.47913854  0.53930956  0.12932182  1
  O  O17  1  0.19705902  0.47927096  0.34404263  1
  O  O18  1  0.15883546  0.87282773  0.80370590  1
  O  O19  1  0.55050148  0.17184158  0.07310284  1
  O  O20  1  0.88408278  0.83834156  0.39496233  1
  O  O21  1  0.54230216  0.67369017  0.57515857  1
  O  O22  1  0.22382152  0.01534189  0.24371701  1
  O  O23  1  0.78399801  0.49382680  0.26055291  1
  O  O24  1  0.21331689  0.50409832  0.74267423  1
  O  O25  1  0.44559209  0.32094107  0.42142807  1
  O  O26  1  0.76968960  0.99518598  0.76165702  1
  O  O27  1  0.11810489  0.17439711  0.59170892  1
  O  O28  1  0.45498774  0.82672905  0.93302511  1
  O  O29  1  0.85631140  0.12883498  0.20357434  1
  O  O30  1  0.79244198  0.50753065  0.65028592  1
  O  O31  1  0.52204562  0.45998754  0.86963116  1
  O  O32  1  0.81022710  0.20454185  0.46346659  1
  O  O33  1  0.13621250  0.18617335  0.98328810  1
  O  O34  1  0.52189017  0.14172747  0.67878724  1
  O  O35  1  0.88729334  0.34793073  0.91276888  1
