# generated using pymatgen
data_NaH2SO4
_symmetry_space_group_name_H-M   'P 1'
_cell_length_a   6.89299500
_cell_length_b   10.90863000
_cell_length_c   11.02785100
_cell_angle_alpha   90.00000000
_cell_angle_beta   90.00000000
_cell_angle_gamma   90.00000000
_symmetry_Int_Tables_number   1
_chemical_formula_structural   NaH2SO4
_chemical_formula_sum   'Na8 H16 S8 O32'
_cell_volume   829.21865644
_cell_formula_units_Z   8
loop_
 _symmetry_equiv_pos_site_id
 _symmetry_equiv_pos_as_xyz
  1  'x, y, z'
loop_
 _atom_site_type_symbol
 _atom_site_label
 _atom_site_symmetry_multiplicity
 _atom_site_fract_x
 _atom_site_fract_y
 _atom_site_fract_z
 _atom_site_occupancy
  Na  Na0  1  0.53330200  0.66634600  0.44407900  1
  Na  Na1  1  0.03330200  0.83365400  0.05592100  1
  Na  Na2  1  0.46669800  0.33365400  0.94407900  1
  Na  Na3  1  0.96669800  0.16634600  0.55592100  1
  Na  Na4  1  0.46669800  0.33365400  0.55592100  1
  Na  Na5  1  0.96669800  0.16634600  0.94407900  1
  Na  Na6  1  0.53330200  0.66634600  0.05592100  1
  Na  Na7  1  0.03330200  0.83365400  0.44407900  1
  H  H8  1  0.34208200  0.11351100  0.44754600  1
  H  H9  1  0.84208200  0.38648900  0.05245400  1
  H  H10  1  0.65791800  0.88648900  0.94754600  1
  H  H11  1  0.15791800  0.61351100  0.55245400  1
  H  H12  1  0.65791800  0.88648900  0.55245400  1
  H  H13  1  0.15791800  0.61351100  0.94754600  1
  H  H14  1  0.34208200  0.11351100  0.05245400  1
  H  H15  1  0.84208200  0.38648900  0.44754600  1
  H  H16  1  0.26092100  0.22554300  0.37192100  1
  H  H17  1  0.76092100  0.27445700  0.12807900  1
  H  H18  1  0.73907900  0.77445700  0.87192100  1
  H  H19  1  0.23907900  0.72554300  0.62807900  1
  H  H20  1  0.73907900  0.77445700  0.62807900  1
  H  H21  1  0.23907900  0.72554300  0.87192100  1
  H  H22  1  0.26092100  0.22554300  0.12807900  1
  H  H23  1  0.76092100  0.27445700  0.37192100  1
  S  S24  1  0.82827000  0.04790400  0.25000000  1
  S  S25  1  0.32827000  0.45209600  0.25000000  1
  S  S26  1  0.17173000  0.95209600  0.75000000  1
  S  S27  1  0.67173000  0.54790400  0.75000000  1
  S  S28  1  0.45423000  0.89588000  0.25000000  1
  S  S29  1  0.95423000  0.60412000  0.25000000  1
  S  S30  1  0.54577000  0.10412000  0.75000000  1
  S  S31  1  0.04577000  0.39588000  0.75000000  1
  O  O32  1  0.93963100  0.01916300  0.13830800  1
  O  O33  1  0.43963100  0.48083700  0.36169200  1
  O  O34  1  0.06036900  0.98083700  0.63830800  1
  O  O35  1  0.56036900  0.51916300  0.86169200  1
  O  O36  1  0.06036900  0.98083700  0.86169200  1
  O  O37  1  0.56036900  0.51916300  0.63830800  1
  O  O38  1  0.93963100  0.01916300  0.36169200  1
  O  O39  1  0.43963100  0.48083700  0.13830800  1
  O  O40  1  0.74904800  0.17454000  0.25000000  1
  O  O41  1  0.24904800  0.32546000  0.25000000  1
  O  O42  1  0.25095200  0.82546000  0.75000000  1
  O  O43  1  0.75095200  0.67454000  0.75000000  1
  O  O44  1  0.48423800  0.03142100  0.85889600  1
  O  O45  1  0.98423800  0.46857900  0.64110400  1
  O  O46  1  0.51576200  0.96857900  0.35889600  1
  O  O47  1  0.01576200  0.53142100  0.14110400  1
  O  O48  1  0.51576200  0.96857900  0.14110400  1
  O  O49  1  0.01576200  0.53142100  0.35889600  1
  O  O50  1  0.48423800  0.03142100  0.64110400  1
  O  O51  1  0.98423800  0.46857900  0.85889600  1
  O  O52  1  0.55309800  0.77245900  0.25000000  1
  O  O53  1  0.05309800  0.72754100  0.25000000  1
  O  O54  1  0.44690200  0.22754100  0.75000000  1
  O  O55  1  0.94690200  0.27245900  0.75000000  1
  O  O56  1  0.77101900  0.30909800  0.04494100  1
  O  O57  1  0.27101900  0.19090200  0.45505900  1
  O  O58  1  0.22898100  0.69090200  0.54494100  1
  O  O59  1  0.72898100  0.80909800  0.95505900  1
  O  O60  1  0.22898100  0.69090200  0.95505900  1
  O  O61  1  0.72898100  0.80909800  0.54494100  1
  O  O62  1  0.77101900  0.30909800  0.45505900  1
  O  O63  1  0.27101900  0.19090200  0.04494100  1
