# generated using pymatgen
data_Ba2B2O5
_symmetry_space_group_name_H-M   'P 1'
_cell_length_a   4.26556646
_cell_length_b   10.72728556
_cell_length_c   13.30360528
_cell_angle_alpha   74.79795154
_cell_angle_beta   90.00000000
_cell_angle_gamma   90.00000000
_symmetry_Int_Tables_number   1
_chemical_formula_structural   Ba2B2O5
_chemical_formula_sum   'Ba8 B8 O20'
_cell_volume   587.44393318
_cell_formula_units_Z   4
loop_
 _symmetry_equiv_pos_site_id
 _symmetry_equiv_pos_as_xyz
  1  'x, y, z'
loop_
 _atom_site_type_symbol
 _atom_site_label
 _atom_site_symmetry_multiplicity
 _atom_site_fract_x
 _atom_site_fract_y
 _atom_site_fract_z
 _atom_site_occupancy
  Ba  Ba0  1  0.72283909  0.57744432  0.09041546  1
  Ba  Ba1  1  0.25292763  0.90031425  0.13883876  1
  Ba  Ba2  1  0.75292763  0.09968575  0.36116124  1
  Ba  Ba3  1  0.22283909  0.42255568  0.40958454  1
  Ba  Ba4  1  0.77716091  0.57744432  0.59041546  1
  Ba  Ba5  1  0.24707237  0.90031425  0.63883876  1
  Ba  Ba6  1  0.74707237  0.09968575  0.86116124  1
  Ba  Ba7  1  0.27716091  0.42255568  0.90958454  1
  B  B8  1  0.83575679  0.17684550  0.07094153  1
  B  B9  1  0.17611667  0.29704129  0.18426375  1
  B  B10  1  0.67611667  0.70295871  0.31573625  1
  B  B11  1  0.33575679  0.82315450  0.42905847  1
  B  B12  1  0.66424321  0.17684550  0.57094153  1
  B  B13  1  0.32388333  0.29704129  0.68426375  1
  B  B14  1  0.82388333  0.70295871  0.81573625  1
  B  B15  1  0.16424321  0.82315450  0.92905847  1
  O  O16  1  0.21957643  0.72435239  0.01466055  1
  O  O17  1  0.21602832  0.41314683  0.11421602  1
  O  O18  1  0.01416109  0.19255930  0.15784817  1
  O  O19  1  0.74340427  0.05294457  0.07895460  1
  O  O20  1  0.77007711  0.73144300  0.21439481  1
  O  O21  1  0.27007711  0.26855700  0.28560519  1
  O  O22  1  0.51416109  0.80744070  0.34215183  1
  O  O23  1  0.71602832  0.58685317  0.38578398  1
  O  O24  1  0.71957643  0.27564761  0.48533945  1
  O  O25  1  0.24340427  0.94705543  0.42104540  1
  O  O26  1  0.28042357  0.72435239  0.51466055  1
  O  O27  1  0.28397168  0.41314683  0.61421602  1
  O  O28  1  0.48583891  0.19255930  0.65784817  1
  O  O29  1  0.75659573  0.05294457  0.57895460  1
  O  O30  1  0.72992289  0.73144300  0.71439481  1
  O  O31  1  0.22992289  0.26855700  0.78560519  1
  O  O32  1  0.98583891  0.80744070  0.84215183  1
  O  O33  1  0.78397168  0.58685317  0.88578398  1
  O  O34  1  0.78042357  0.27564761  0.98533945  1
  O  O35  1  0.25659573  0.94705543  0.92104540  1
