# generated using pymatgen
data_CsY3O5
_symmetry_space_group_name_H-M   'P 1'
_cell_length_a   3.48978387
_cell_length_b   10.43625230
_cell_length_c   17.41089429
_cell_angle_alpha   90.00000000
_cell_angle_beta   90.00000000
_cell_angle_gamma   90.00000000
_symmetry_Int_Tables_number   1
_chemical_formula_structural   CsY3O5
_chemical_formula_sum   'Cs4 Y12 O20'
_cell_volume   634.10938288
_cell_formula_units_Z   4
loop_
 _symmetry_equiv_pos_site_id
 _symmetry_equiv_pos_as_xyz
  1  'x, y, z'
loop_
 _atom_site_type_symbol
 _atom_site_label
 _atom_site_symmetry_multiplicity
 _atom_site_fract_x
 _atom_site_fract_y
 _atom_site_fract_z
 _atom_site_occupancy
  Cs  Cs0  1  0.75000000  0.02990041  0.62463084  1
  Cs  Cs1  1  0.25000000  0.47009959  0.12463084  1
  Cs  Cs2  1  0.75000000  0.52990041  0.87536916  1
  Cs  Cs3  1  0.25000000  0.97009959  0.37536916  1
  Y  Y4  1  0.75000000  0.10525595  0.16047982  1
  Y  Y5  1  0.25000000  0.15069501  0.98630109  1
  Y  Y6  1  0.75000000  0.18684352  0.81446456  1
  Y  Y7  1  0.25000000  0.31315648  0.31446456  1
  Y  Y8  1  0.75000000  0.34930499  0.48630109  1
  Y  Y9  1  0.25000000  0.39474405  0.66047982  1
  Y  Y10  1  0.75000000  0.60525595  0.33952018  1
  Y  Y11  1  0.25000000  0.65069501  0.51369891  1
  Y  Y12  1  0.75000000  0.68684352  0.68553544  1
  Y  Y13  1  0.25000000  0.81315648  0.18553544  1
  Y  Y14  1  0.75000000  0.84930499  0.01369891  1
  Y  Y15  1  0.25000000  0.89474405  0.83952018  1
  O  O16  1  0.75000000  0.02168049  0.91989490  1
  O  O17  1  0.25000000  0.06982299  0.77145068  1
  O  O18  1  0.25000000  0.19010823  0.21355163  1
  O  O19  1  0.75000000  0.22111790  0.05058564  1
  O  O20  1  0.75000000  0.22959799  0.38440270  1
  O  O21  1  0.25000000  0.27040201  0.88440270  1
  O  O22  1  0.25000000  0.27888210  0.55058564  1
  O  O23  1  0.75000000  0.30989177  0.71355163  1
  O  O24  1  0.75000000  0.43017701  0.27145068  1
  O  O25  1  0.25000000  0.47831951  0.41989490  1
  O  O26  1  0.75000000  0.52168049  0.58010510  1
  O  O27  1  0.25000000  0.56982299  0.72854932  1
  O  O28  1  0.25000000  0.69010823  0.28644837  1
  O  O29  1  0.75000000  0.72111790  0.44941436  1
  O  O30  1  0.75000000  0.72959799  0.11559730  1
  O  O31  1  0.25000000  0.77040201  0.61559730  1
  O  O32  1  0.25000000  0.77888210  0.94941436  1
  O  O33  1  0.75000000  0.80989177  0.78644837  1
  O  O34  1  0.75000000  0.93017701  0.22854932  1
  O  O35  1  0.25000000  0.97831951  0.08010510  1
