# generated using pymatgen
data_Li4Mn3P4(HO8)2
_symmetry_space_group_name_H-M   'P 1'
_cell_length_a   9.38708225
_cell_length_b   8.38493864
_cell_length_c   9.30667774
_cell_angle_alpha   64.03636585
_cell_angle_beta   90.00000000
_cell_angle_gamma   90.00000000
_symmetry_Int_Tables_number   1
_chemical_formula_structural   Li4Mn3P4(HO8)2
_chemical_formula_sum   'Li8 Mn6 P8 H4 O32'
_cell_volume   658.59694163
_cell_formula_units_Z   2
loop_
 _symmetry_equiv_pos_site_id
 _symmetry_equiv_pos_as_xyz
  1  'x, y, z'
loop_
 _atom_site_type_symbol
 _atom_site_label
 _atom_site_symmetry_multiplicity
 _atom_site_fract_x
 _atom_site_fract_y
 _atom_site_fract_z
 _atom_site_occupancy
  Li  Li0  1  0.35922372  0.41384084  0.04513248  1
  Li  Li1  1  0.97736629  0.29154597  0.30333071  1
  Li  Li2  1  0.14077628  0.91384084  0.04513248  1
  Li  Li3  1  0.52263371  0.79154597  0.30333071  1
  Li  Li4  1  0.47736629  0.20845403  0.69666929  1
  Li  Li5  1  0.85922372  0.08615916  0.95486752  1
  Li  Li6  1  0.02263371  0.70845403  0.69666929  1
  Li  Li7  1  0.64077628  0.58615916  0.95486752  1
  Mn  Mn8  1  0.63131053  0.39894987  0.38126278  1
  Mn  Mn9  1  0.13131053  0.10105013  0.61873722  1
  Mn  Mn10  1  -0.00000000  0.50000000  0.50000000  1
  Mn  Mn11  1  0.86868947  0.89894987  0.38126278  1
  Mn  Mn12  1  0.36868947  0.60105013  0.61873722  1
  Mn  Mn13  1  0.50000000  -0.00000000  0.50000000  1
  P  P14  1  0.67964618  0.19302403  0.16743785  1
  P  P15  1  0.82035382  0.69302403  0.16743785  1
  P  P16  1  0.31774420  0.43307487  0.37266294  1
  P  P17  1  0.81774420  0.06692513  0.62733706  1
  P  P18  1  0.18225580  0.93307487  0.37266294  1
  P  P19  1  0.68225580  0.56692513  0.62733706  1
  P  P20  1  0.17964618  0.30697597  0.83256215  1
  P  P21  1  0.32035382  0.80697597  0.83256215  1
  H  H22  1  0.20047434  0.16317848  0.09456498  1
  H  H23  1  0.29952566  0.66317848  0.09456498  1
  H  H24  1  0.70047434  0.33682152  0.90543502  1
  H  H25  1  0.79952566  0.83682152  0.90543502  1
  O  O26  1  0.19598655  0.29644111  0.00503867  1
  O  O27  1  0.20846392  0.98374295  0.19654379  1
  O  O28  1  0.83007338  0.16852790  0.23962549  1
  O  O29  1  0.58854195  0.03137991  0.26690962  1
  O  O30  1  0.61091813  0.36650512  0.15050808  1
  O  O31  1  0.30401345  0.79644111  0.00503867  1
  O  O32  1  0.29153608  0.48374295  0.19654379  1
  O  O33  1  0.12083124  0.09153097  0.39227013  1
  O  O34  1  0.66992662  0.66852790  0.23962549  1
  O  O35  1  0.91145805  0.53137991  0.26690962  1
  O  O36  1  0.67855853  0.12843077  0.53087108  1
  O  O37  1  0.88908187  0.86650512  0.15050808  1
  O  O38  1  0.42469955  0.27718697  0.44294127  1
  O  O39  1  0.92469955  0.22281303  0.55705873  1
  O  O40  1  0.17855853  0.37156923  0.46912892  1
  O  O41  1  0.37916876  0.59153097  0.39227013  1
  O  O42  1  0.62083124  0.40846903  0.60772987  1
  O  O43  1  0.82144147  0.62843077  0.53087108  1
  O  O44  1  0.07530045  0.77718697  0.44294127  1
  O  O45  1  0.57530045  0.72281303  0.55705873  1
  O  O46  1  0.11091813  0.13349488  0.84949192  1
  O  O47  1  0.32144147  0.87156923  0.46912892  1
  O  O48  1  0.08854195  0.46862009  0.73309038  1
  O  O49  1  0.33007338  0.33147210  0.76037451  1
  O  O50  1  0.87916876  0.90846903  0.60772987  1
  O  O51  1  0.70846392  0.51625705  0.80345621  1
  O  O52  1  0.69598655  0.20355889  0.99496133  1
  O  O53  1  0.38908187  0.63349488  0.84949192  1
  O  O54  1  0.41145805  0.96862009  0.73309038  1
  O  O55  1  0.16992662  0.83147210  0.76037451  1
  O  O56  1  0.79153608  0.01625705  0.80345621  1
  O  O57  1  0.80401345  0.70355889  0.99496133  1
