# generated using pymatgen
data_Ca4Al6O13
_symmetry_space_group_name_H-M   'P 1'
_cell_length_a   7.62453872
_cell_length_b   7.62453872
_cell_length_c   7.62453872
_cell_angle_alpha   109.47122063
_cell_angle_beta   109.47122063
_cell_angle_gamma   109.47122063
_symmetry_Int_Tables_number   1
_chemical_formula_structural   Ca4Al6O13
_chemical_formula_sum   'Ca4 Al6 O13'
_cell_volume   341.20770630
_cell_formula_units_Z   1
loop_
 _symmetry_equiv_pos_site_id
 _symmetry_equiv_pos_as_xyz
  1  'x, y, z'
loop_
 _atom_site_type_symbol
 _atom_site_label
 _atom_site_symmetry_multiplicity
 _atom_site_fract_x
 _atom_site_fract_y
 _atom_site_fract_z
 _atom_site_occupancy
  Ca  Ca0  1  -0.00000000  0.69190836  -0.00000000  1
  Ca  Ca1  1  0.69190836  0.00000000  0.00000000  1
  Ca  Ca2  1  -0.00000000  -0.00000000  0.69190836  1
  Ca  Ca3  1  0.30809164  0.30809164  0.30809164  1
  Al  Al4  1  0.75000000  0.25000000  0.50000000  1
  Al  Al5  1  0.75000000  0.50000000  0.25000000  1
  Al  Al6  1  0.25000000  0.50000000  0.75000000  1
  Al  Al7  1  0.50000000  0.75000000  0.25000000  1
  Al  Al8  1  0.50000000  0.25000000  0.75000000  1
  Al  Al9  1  0.25000000  0.75000000  0.50000000  1
  O  O10  1  0.00000000  -0.00000000  0.00000000  1
  O  O11  1  0.55084105  0.27980600  0.55084105  1
  O  O12  1  0.72019400  0.27103505  0.27103505  1
  O  O13  1  0.27103505  0.27103505  0.72019400  1
  O  O14  1  0.72896495  0.44915895  -0.00000000  1
  O  O15  1  0.00000000  0.44915895  0.72896495  1
  O  O16  1  -0.00000000  0.72896495  0.44915895  1
  O  O17  1  0.27980600  0.55084105  0.55084105  1
  O  O18  1  0.55084105  0.55084105  0.27980600  1
  O  O19  1  0.44915895  0.72896495  -0.00000000  1
  O  O20  1  0.27103505  0.72019400  0.27103505  1
  O  O21  1  0.44915895  -0.00000000  0.72896495  1
  O  O22  1  0.72896495  -0.00000000  0.44915895  1
