# generated using pymatgen
data_Na3NiBSO7
_symmetry_space_group_name_H-M   'P 1'
_cell_length_a   5.27549092
_cell_length_b   11.23018818
_cell_length_c   11.22956995
_cell_angle_alpha   106.04522299
_cell_angle_beta   91.20108981
_cell_angle_gamma   88.80034762
_symmetry_Int_Tables_number   1
_chemical_formula_structural   Na3NiBSO7
_chemical_formula_sum   'Na12 Ni4 B4 S4 O28'
_cell_volume   639.15599128
_cell_formula_units_Z   4
loop_
 _symmetry_equiv_pos_site_id
 _symmetry_equiv_pos_as_xyz
  1  'x, y, z'
loop_
 _atom_site_type_symbol
 _atom_site_label
 _atom_site_symmetry_multiplicity
 _atom_site_fract_x
 _atom_site_fract_y
 _atom_site_fract_z
 _atom_site_occupancy
  Na  Na0  1  0.74828600  0.15632100  0.09370900  1
  Na  Na1  1  0.74834000  0.65627700  0.59372900  1
  Na  Na2  1  0.25172000  0.84368400  0.90629400  1
  Na  Na3  1  0.25166800  0.34372300  0.40627700  1
  Na  Na4  1  0.24079100  0.61666600  0.37610200  1
  Na  Na5  1  0.24083300  0.11663400  0.87608400  1
  Na  Na6  1  0.24074500  0.37395400  0.13332900  1
  Na  Na7  1  0.24082400  0.87389500  0.63335800  1
  Na  Na8  1  0.75926000  0.62603900  0.86668400  1
  Na  Na9  1  0.75916800  0.12610600  0.36665800  1
  Na  Na10  1  0.75921500  0.38332600  0.62391400  1
  Na  Na11  1  0.75915200  0.88336900  0.12392000  1
  Ni  Ni12  1  0.76719300  0.04280300  0.70709700  1
  Ni  Ni13  1  0.23277200  0.95715000  0.29283300  1
  Ni  Ni14  1  0.76714700  0.54287600  0.20712700  1
  Ni  Ni15  1  0.23295400  0.45711600  0.79287700  1
  B  B16  1  0.73118600  0.40858800  0.34142900  1
  B  B17  1  0.73121200  0.90852800  0.84144600  1
  B  B18  1  0.26883300  0.59144000  0.65855500  1
  B  B19  1  0.26878500  0.09147900  0.15854500  1
  S  S20  1  0.71826700  0.33513300  0.91484200  1
  S  S21  1  0.71821000  0.83518100  0.41483200  1
  S  S22  1  0.28173200  0.66486800  0.08514600  1
  S  S23  1  0.28176000  0.16480700  0.58517200  1
  O  O24  1  0.29246500  0.16682200  0.08323100  1
  O  O25  1  0.29249100  0.66675700  0.58323400  1
  O  O26  1  0.70753600  0.83316600  0.91678200  1
  O  O27  1  0.70752400  0.33324100  0.41677300  1
  O  O28  1  0.96438500  0.44440800  0.30564100  1
  O  O29  1  0.96442700  0.94433800  0.80565600  1
  O  O30  1  0.03562500  0.55560400  0.69436300  1
  O  O31  1  0.03555500  0.05565800  0.19434200  1
  O  O32  1  0.52246500  0.45897600  0.29101500  1
  O  O33  1  0.52251300  0.95892900  0.79103800  1
  O  O34  1  0.47756600  0.54104000  0.70898300  1
  O  O35  1  0.47746800  0.04106300  0.20896500  1
  O  O36  1  0.43867700  0.35350400  0.89656400  1
  O  O37  1  0.43867400  0.85354800  0.39654500  1
  O  O38  1  0.56132000  0.64651000  0.10343300  1
  O  O39  1  0.56131500  0.14644900  0.60345600  1
  O  O40  1  0.13887000  0.59446500  0.15564600  1
  O  O41  1  0.13886900  0.09439400  0.65562200  1
  O  O42  1  0.86113500  0.40553700  0.84435400  1
  O  O43  1  0.86111900  0.90561400  0.34438200  1
  O  O44  1  0.78439000  0.20029600  0.87282500  1
  O  O45  1  0.78438900  0.70033700  0.37276700  1
  O  O46  1  0.78461900  0.37721800  0.04967700  1
  O  O47  1  0.78457300  0.87720200  0.54966700  1
  O  O48  1  0.21537200  0.62279100  0.95032600  1
  O  O49  1  0.21540800  0.12279700  0.45033800  1
  O  O50  1  0.21558200  0.79970800  0.12717600  1
  O  O51  1  0.21561700  0.29966600  0.62723900  1
