# generated using pymatgen
data_NO2
_symmetry_space_group_name_H-M   'P 1'
_cell_length_a   6.63686300
_cell_length_b   6.02941900
_cell_length_c   6.60040263
_cell_angle_alpha   70.53577863
_cell_angle_beta   90.00000000
_cell_angle_gamma   90.00000000
_symmetry_Int_Tables_number   1
_chemical_formula_structural   NO2
_chemical_formula_sum   'N4 O8'
_cell_volume   249.02975374
_cell_formula_units_Z   4
loop_
 _symmetry_equiv_pos_site_id
 _symmetry_equiv_pos_as_xyz
  1  'x, y, z'
loop_
 _atom_site_type_symbol
 _atom_site_label
 _atom_site_symmetry_multiplicity
 _atom_site_fract_x
 _atom_site_fract_y
 _atom_site_fract_z
 _atom_site_occupancy
  N  N0  1  0.63146900  0.74630900  0.75372200  1
  N  N1  1  0.13146900  0.25369100  0.74627800  1
  N  N2  1  0.36853100  0.25369100  0.24627800  1
  N  N3  1  0.86853100  0.74630900  0.25372200  1
  O  O4  1  0.19011500  0.66582600  0.04994800  1
  O  O5  1  0.69011500  0.33417400  0.45005200  1
  O  O6  1  0.80988500  0.33417400  0.95005200  1
  O  O7  1  0.30988500  0.66582600  0.54994800  1
  O  O8  1  0.18795300  0.82918400  0.48705600  1
  O  O9  1  0.68795300  0.17081600  0.01294400  1
  O  O10  1  0.81204700  0.17081600  0.51294400  1
  O  O11  1  0.31204700  0.82918400  0.98705600  1
