# generated using pymatgen
data_P4S5
_symmetry_space_group_name_H-M   'P 1'
_cell_length_a   6.49205912
_cell_length_b   6.73598770
_cell_length_c   11.43403550
_cell_angle_alpha   90.00000000
_cell_angle_beta   90.00000000
_cell_angle_gamma   115.75822504
_symmetry_Int_Tables_number   1
_chemical_formula_structural   P4S5
_chemical_formula_sum   'P8 S10'
_cell_volume   450.33170538
_cell_formula_units_Z   2
loop_
 _symmetry_equiv_pos_site_id
 _symmetry_equiv_pos_as_xyz
  1  'x, y, z'
loop_
 _atom_site_type_symbol
 _atom_site_label
 _atom_site_symmetry_multiplicity
 _atom_site_fract_x
 _atom_site_fract_y
 _atom_site_fract_z
 _atom_site_occupancy
  P  P0  1  0.71421350  0.65294673  0.75000000  1
  P  P1  1  0.28578650  0.34705327  0.25000000  1
  P  P2  1  0.13549463  0.22864893  0.75000000  1
  P  P3  1  0.86450537  0.77135207  0.25000000  1
  P  P4  1  0.57702285  0.14300512  0.85107804  1
  P  P5  1  0.42297715  0.85699488  0.35107804  1
  P  P6  1  0.42297715  0.85699488  0.14892196  1
  P  P7  1  0.57702285  0.14300512  0.64892196  1
  S  S8  1  0.35913575  0.57173292  0.75000000  1
  S  S9  1  0.64086425  0.42826708  0.25000000  1
  S  S10  1  0.23616330  0.08294503  0.88878122  1
  S  S11  1  0.76383670  0.91705497  0.38878122  1
  S  S12  1  0.76383670  0.91705497  0.11121878  1
  S  S13  1  0.23616330  0.08294503  0.61121878  1
  S  S14  1  0.77530591  0.47913744  0.88893548  1
  S  S15  1  0.22469409  0.52086256  0.38893548  1
  S  S16  1  0.22469409  0.52086256  0.11106452  1
  S  S17  1  0.77530591  0.47913744  0.61106452  1
