# generated using pymatgen
data_Na5P5(H9O7)2
_symmetry_space_group_name_H-M   'P 1'
_cell_length_a   13.71575600
_cell_length_b   11.21269800
_cell_length_c   13.04292197
_cell_angle_alpha   75.99291191
_cell_angle_beta   90.00000000
_cell_angle_gamma   90.00000000
_symmetry_Int_Tables_number   1
_chemical_formula_structural   Na5P5(H9O7)2
_chemical_formula_sum   'Na20 P20 H72 O56'
_cell_volume   1946.23595385
_cell_formula_units_Z   4
loop_
 _symmetry_equiv_pos_site_id
 _symmetry_equiv_pos_as_xyz
  1  'x, y, z'
loop_
 _atom_site_type_symbol
 _atom_site_label
 _atom_site_symmetry_multiplicity
 _atom_site_fract_x
 _atom_site_fract_y
 _atom_site_fract_z
 _atom_site_occupancy
  Na  Na0  1  0.76014200  0.23477200  0.50268200  1
  Na  Na1  1  0.73985800  0.73477200  0.00268200  1
  Na  Na2  1  0.23985800  0.76522800  0.49731800  1
  Na  Na3  1  0.26014200  0.26522800  0.99731800  1
  Na  Na4  1  0.56921600  0.11982800  0.64450800  1
  Na  Na5  1  0.93078400  0.61982800  0.14450800  1
  Na  Na6  1  0.43078400  0.88017200  0.35549200  1
  Na  Na7  1  0.06921600  0.38017200  0.85549200  1
  Na  Na8  1  0.06328800  0.62869500  0.64276500  1
  Na  Na9  1  0.43671200  0.12869500  0.14276500  1
  Na  Na10  1  0.93671200  0.37130500  0.35723500  1
  Na  Na11  1  0.56328800  0.87130500  0.85723500  1
  Na  Na12  1  0.82553100  0.56217200  0.45722900  1
  Na  Na13  1  0.67446900  0.06217200  0.95722900  1
  Na  Na14  1  0.17446900  0.43782800  0.54277100  1
  Na  Na15  1  0.32553100  0.93782800  0.04277100  1
  Na  Na16  1  0.32300600  0.07285700  0.45858500  1
  Na  Na17  1  0.17699400  0.57285700  0.95858500  1
  Na  Na18  1  0.67699400  0.92714300  0.54141500  1
  Na  Na19  1  0.82300600  0.42714300  0.04141500  1
  P  P20  1  0.70294400  0.49017800  0.25287800  1
  P  P21  1  0.79705600  0.99017800  0.75287800  1
  P  P22  1  0.29705600  0.50982200  0.74712200  1
  P  P23  1  0.20294400  0.00982200  0.24712200  1
  P  P24  1  0.60914100  0.43463300  0.58040500  1
  P  P25  1  0.89085900  0.93463300  0.08040500  1
  P  P26  1  0.39085900  0.56536700  0.41959500  1
  P  P27  1  0.10914100  0.06536700  0.91959500  1
  P  P28  1  0.10112300  0.96066500  0.61868900  1
  P  P29  1  0.39887700  0.46066500  0.11868900  1
  P  P30  1  0.89887700  0.03933500  0.38131100  1
  P  P31  1  0.60112300  0.53933500  0.88131100  1
  P  P32  1  0.55540500  0.16769400  0.36135600  1
  P  P33  1  0.94459500  0.66769400  0.86135600  1
  P  P34  1  0.44459500  0.83230600  0.63864400  1
  P  P35  1  0.05540500  0.33230600  0.13864400  1
  P  P36  1  0.04917900  0.66928600  0.35784200  1
  P  P37  1  0.45082100  0.16928600  0.85784200  1
  P  P38  1  0.95082100  0.33071400  0.64215800  1
  P  P39  1  0.54917900  0.83071400  0.14215800  1
  H  H40  1  0.63783200  0.57591000  0.28117800  1
  H  H41  1  0.86216800  0.07591000  0.78117800  1
  H  H42  1  0.36216800  0.42409000  0.71882200  1
  H  H43  1  0.13783200  0.92409000  0.21882200  1
  H  H44  1  0.13685400  0.09527100  0.27423100  1
  H  H45  1  0.36314600  0.59527100  0.77423100  1
  H  H46  1  0.86314600  0.90472900  0.72576900  1
  H  H47  1  0.63685400  0.40472900  0.22576900  1
  H  H48  1  0.52790200  0.44654900  0.64530100  1
  H  H49  1  0.97209800  0.94654900  0.14530100  1
  H  H50  1  0.47209800  0.55345100  0.35469900  1
  H  H51  1  0.02790200  0.05345100  0.85469900  1
  H  H52  1  0.08824400  0.97408500  0.72364200  1
  H  H53  1  0.41175600  0.47408500  0.22364200  1
  H  H54  1  0.91175600  0.02591500  0.27635800  1
  H  H55  1  0.58824400  0.52591500  0.77635800  1
  H  H56  1  0.56433600  0.42252100  0.48511000  1
  H  H57  1  0.93566400  0.92252100  0.98511000  1
  H  H58  1  0.43566400  0.57747900  0.51489000  1
  H  H59  1  0.06433600  0.07747900  0.01489000  1
  H  H60  1  0.00389100  0.97305600  0.58002800  1
  H  H61  1  0.49610900  0.47305600  0.08002800  1
  H  H62  1  0.99610900  0.02694400  0.41997200  1
  H  H63  1  0.50389100  0.52694400  0.91997200  1
  H  H64  1  0.62302300  0.18593700  0.27609700  1
  H  H65  1  0.87697700  0.68593700  0.77609700  1
  H  H66  1  0.37697700  0.81406300  0.72390300  1
  H  H67  1  0.12302300  0.31406300  0.22390300  1
  H  H68  1  0.11804800  0.69279600  0.27387800  1
  H  H69  1  0.38195200  0.19279600  0.77387800  1
  H  H70  1  0.88195200  0.30720400  0.72612200  1
  H  H71  1  0.61804800  0.80720400  0.22612200  1
  H  H72  1  0.51934000  0.28870300  0.35560400  1
  H  H73  1  0.98066000  0.78870300  0.85560400  1
  H  H74  1  0.48066000  0.71129700  0.64439600  1
  H  H75  1  0.01934000  0.21129700  0.14439600  1
  H  H76  1  0.00429900  0.78643900  0.35062300  1
  H  H77  1  0.49570100  0.28643900  0.85062300  1
  H  H78  1  0.99570100  0.21356100  0.64937700  1
  H  H79  1  0.50429900  0.71356100  0.14937700  1
  H  H80  1  0.39862200  0.29518000  0.52004000  1
  H  H81  1  0.10137800  0.79518000  0.02004000  1
  H  H82  1  0.60137800  0.70482000  0.47996000  1
  H  H83  1  0.89862200  0.20482000  0.97996000  1
  H  H84  1  0.89678500  0.78276600  0.52010200  1
  H  H85  1  0.60321500  0.28276600  0.02010200  1
  H  H86  1  0.10321500  0.21723400  0.47989800  1
  H  H87  1  0.39678500  0.71723400  0.97989800  1
  H  H88  1  0.35317200  0.21131600  0.61770000  1
  H  H89  1  0.14682800  0.71131600  0.11770000  1
  H  H90  1  0.64682800  0.78868400  0.38230000  1
  H  H91  1  0.85317200  0.28868400  0.88230000  1
  H  H92  1  0.85219500  0.69957700  0.61934800  1
  H  H93  1  0.64780500  0.19957700  0.11934800  1
  H  H94  1  0.14780500  0.30042300  0.38065200  1
  H  H95  1  0.35219500  0.80042300  0.88065200  1
  H  H96  1  0.79445300  0.77422400  0.26470000  1
  H  H97  1  0.70554700  0.27422400  0.76470000  1
  H  H98  1  0.20554700  0.22577600  0.73530000  1
  H  H99  1  0.29445300  0.72577600  0.23530000  1
  H  H100  1  0.30876700  0.27708300  0.26882000  1
  H  H101  1  0.19123300  0.77708300  0.76882000  1
  H  H102  1  0.69123300  0.72291700  0.73118000  1
  H  H103  1  0.80876700  0.22291700  0.23118000  1
  H  H104  1  0.80373000  0.82184200  0.36901200  1
  H  H105  1  0.69627000  0.32184200  0.86901200  1
  H  H106  1  0.19627000  0.17815800  0.63098800  1
  H  H107  1  0.30373000  0.67815800  0.13098800  1
  H  H108  1  0.30749800  0.33708900  0.36688400  1
  H  H109  1  0.19250200  0.83708900  0.86688400  1
  H  H110  1  0.69250200  0.66291100  0.63311600  1
  H  H111  1  0.80749800  0.16291100  0.13311600  1
  O  O112  1  0.76006000  0.42703700  0.35110600  1
  O  O113  1  0.73994000  0.92703700  0.85110600  1
  O  O114  1  0.23994000  0.57296300  0.64889400  1
  O  O115  1  0.26006000  0.07296300  0.14889400  1
  O  O116  1  0.25824600  0.94669100  0.34651900  1
  O  O117  1  0.24175400  0.44669100  0.84651900  1
  O  O118  1  0.74175400  0.05330900  0.65348100  1
  O  O119  1  0.75824600  0.55330900  0.15348100  1
  O  O120  1  0.66094300  0.31420000  0.62841100  1
  O  O121  1  0.83905700  0.81420000  0.12841100  1
  O  O122  1  0.33905700  0.68580000  0.37158900  1
  O  O123  1  0.16094300  0.18580000  0.87158900  1
  O  O124  1  0.13614000  0.83044000  0.62423900  1
  O  O125  1  0.36386000  0.33044000  0.12423900  1
  O  O126  1  0.86386000  0.16956000  0.37576100  1
  O  O127  1  0.63614000  0.66956000  0.87576100  1
  O  O128  1  0.66606600  0.55529000  0.55684800  1
  O  O129  1  0.83393400  0.05529000  0.05684800  1
  O  O130  1  0.33393400  0.44471000  0.44315200  1
  O  O131  1  0.16606600  0.94471000  0.94315200  1
  O  O132  1  0.16102300  0.06958800  0.55779500  1
  O  O133  1  0.33897700  0.56958800  0.05779500  1
  O  O134  1  0.83897700  0.93041200  0.44220500  1
  O  O135  1  0.66102300  0.43041200  0.94220500  1
  O  O136  1  0.61378300  0.12694100  0.46299800  1
  O  O137  1  0.88621700  0.62694100  0.96299800  1
  O  O138  1  0.38621700  0.87305900  0.53700200  1
  O  O139  1  0.11378300  0.37305900  0.03700200  1
  O  O140  1  0.10633300  0.63528700  0.46055400  1
  O  O141  1  0.39366700  0.13528700  0.96055400  1
  O  O142  1  0.89366700  0.36471300  0.53944600  1
  O  O143  1  0.60633300  0.86471300  0.03944600  1
  O  O144  1  0.47094500  0.09071300  0.33795500  1
  O  O145  1  0.02905500  0.59071300  0.83795500  1
  O  O146  1  0.52905500  0.90928700  0.66204500  1
  O  O147  1  0.97094500  0.40928700  0.16204500  1
  O  O148  1  0.97134000  0.58346000  0.33370100  1
  O  O149  1  0.52866000  0.08346000  0.83370100  1
  O  O150  1  0.02866000  0.41654000  0.66629900  1
  O  O151  1  0.47134000  0.91654000  0.16629900  1
  O  O152  1  0.40779600  0.21285600  0.56773300  1
  O  O153  1  0.09220400  0.71285600  0.06773300  1
  O  O154  1  0.59220400  0.78714400  0.43226700  1
  O  O155  1  0.90779600  0.28714400  0.93226700  1
  O  O156  1  0.90413700  0.69974800  0.56682100  1
  O  O157  1  0.59586300  0.19974800  0.06682100  1
  O  O158  1  0.09586300  0.30025200  0.43317900  1
  O  O159  1  0.40413700  0.80025200  0.93317900  1
  O  O160  1  0.77374300  0.75652000  0.33986000  1
  O  O161  1  0.72625700  0.25652000  0.83986000  1
  O  O162  1  0.22625700  0.24348000  0.66014000  1
  O  O163  1  0.27374300  0.74348000  0.16014000  1
  O  O164  1  0.28152800  0.26759900  0.34053300  1
  O  O165  1  0.21847200  0.76759900  0.84053300  1
  O  O166  1  0.71847200  0.73240100  0.65946700  1
  O  O167  1  0.78152800  0.23240100  0.15946700  1
