# generated using pymatgen
data_MgUO4
_symmetry_space_group_name_H-M   'P 1'
_cell_length_a   5.78256845
_cell_length_b   5.78211619
_cell_length_c   5.78291761
_cell_angle_alpha   111.28732870
_cell_angle_beta   110.54034625
_cell_angle_gamma   106.62303808
_symmetry_Int_Tables_number   1
_chemical_formula_structural   MgUO4
_chemical_formula_sum   'Mg2 U2 O8'
_cell_volume   148.56533926
_cell_formula_units_Z   2
loop_
 _symmetry_equiv_pos_site_id
 _symmetry_equiv_pos_as_xyz
  1  'x, y, z'
loop_
 _atom_site_type_symbol
 _atom_site_label
 _atom_site_symmetry_multiplicity
 _atom_site_fract_x
 _atom_site_fract_y
 _atom_site_fract_z
 _atom_site_occupancy
  Mg  Mg0  1  0.49999924  -0.00000887  0.49999237  1
  Mg  Mg1  1  0.00000176  0.49999635  0.49999546  1
  U  U2  1  0.27903882  0.24999656  0.02903562  1
  U  U3  1  0.72096458  0.75000366  0.97096781  1
  O  O4  1  0.28633675  0.47864057  0.80766381  1
  O  O5  1  0.71367315  0.52136521  0.19234573  1
  O  O6  1  0.82903453  0.02136368  0.80768532  1
  O  O7  1  0.17097070  0.97864229  0.19232913  1
  O  O8  1  0.27850238  0.95013605  0.72875203  1
  O  O9  1  0.72142313  0.45015844  0.67168184  1
  O  O10  1  0.27856990  0.54985098  0.32831845  1
  O  O11  1  0.72148506  0.04985609  0.27123244  1
