# generated using pymatgen
data_NaBi5O8
_symmetry_space_group_name_H-M   'P 1'
_cell_length_a   7.26153094
_cell_length_b   7.35578559
_cell_length_c   10.29587280
_cell_angle_alpha   70.81073791
_cell_angle_beta   72.81186633
_cell_angle_gamma   80.05278329
_symmetry_Int_Tables_number   1
_chemical_formula_structural   NaBi5O8
_chemical_formula_sum   'Na2 Bi10 O16'
_cell_volume   494.44881717
_cell_formula_units_Z   2
loop_
 _symmetry_equiv_pos_site_id
 _symmetry_equiv_pos_as_xyz
  1  'x, y, z'
loop_
 _atom_site_type_symbol
 _atom_site_label
 _atom_site_symmetry_multiplicity
 _atom_site_fract_x
 _atom_site_fract_y
 _atom_site_fract_z
 _atom_site_occupancy
  Na  Na0  1  0.73996979  0.40151034  0.95770622  1
  Na  Na1  1  0.26003021  0.59848966  0.04229378  1
  Bi  Bi2  1  0.75544020  0.90433160  0.96496605  1
  Bi  Bi3  1  0.53578539  0.81927277  0.72665628  1
  Bi  Bi4  1  0.53469230  0.38046517  0.68087253  1
  Bi  Bi5  1  0.11363656  0.74142126  0.65690236  1
  Bi  Bi6  1  0.05988340  0.27606961  0.64006911  1
  Bi  Bi7  1  0.94011660  0.72393039  0.35993089  1
  Bi  Bi8  1  0.88636344  0.25857874  0.34309764  1
  Bi  Bi9  1  0.46530770  0.61953483  0.31912747  1
  Bi  Bi10  1  0.46421461  0.18072723  0.27334372  1
  Bi  Bi11  1  0.24455980  0.09566840  0.03503395  1
  O  O12  1  0.48514340  0.90006674  0.92020770  1
  O  O13  1  0.82998397  0.74075475  0.80921623  1
  O  O14  1  0.81297398  0.17551107  0.81522474  1
  O  O15  1  0.50273044  0.52867643  0.83773476  1
  O  O16  1  0.21326885  0.84951338  0.78756350  1
  O  O17  1  0.13201792  0.43412894  0.75402109  1
  O  O18  1  0.82492018  0.47114017  0.57319352  1
  O  O19  1  0.44632267  0.66419213  0.56014086  1
  O  O20  1  0.55367733  0.33580787  0.43985914  1
  O  O21  1  0.17507982  0.52885983  0.42680648  1
  O  O22  1  0.86798208  0.56587106  0.24597891  1
  O  O23  1  0.78673115  0.15048662  0.21243650  1
  O  O24  1  0.49726956  0.47132357  0.16226524  1
  O  O25  1  0.18702602  0.82448893  0.18477526  1
  O  O26  1  0.17001603  0.25924525  0.19078377  1
  O  O27  1  0.51485660  0.09993326  0.07979230  1
