# generated using pymatgen
data_Ca4Ta2O9
_symmetry_space_group_name_H-M   'P 1'
_cell_length_a   5.53085774
_cell_length_b   9.82474333
_cell_length_c   17.07613060
_cell_angle_alpha   55.99151240
_cell_angle_beta   90.00000000
_cell_angle_gamma   90.00000000
_symmetry_Int_Tables_number   1
_chemical_formula_structural   Ca4Ta2O9
_chemical_formula_sum   'Ca16 Ta8 O36'
_cell_volume   769.19062297
_cell_formula_units_Z   4
loop_
 _symmetry_equiv_pos_site_id
 _symmetry_equiv_pos_as_xyz
  1  'x, y, z'
loop_
 _atom_site_type_symbol
 _atom_site_label
 _atom_site_symmetry_multiplicity
 _atom_site_fract_x
 _atom_site_fract_y
 _atom_site_fract_z
 _atom_site_occupancy
  Ca  Ca0  1  0.00000000  0.50000000  0.50000000  1
  Ca  Ca1  1  0.00000000  -0.00000000  0.00000000  1
  Ca  Ca2  1  0.99733593  0.78544893  0.22903959  1
  Ca  Ca3  1  0.48005083  0.54631812  0.60487351  1
  Ca  Ca4  1  0.51858141  0.12324710  0.07125777  1
  Ca  Ca5  1  0.01858141  0.87675290  0.42874223  1
  Ca  Ca6  1  0.98005083  0.45368188  0.89512649  1
  Ca  Ca7  1  0.49733593  0.21455107  0.27096041  1
  Ca  Ca8  1  0.50000000  -0.00000000  0.50000000  1
  Ca  Ca9  1  0.50266407  0.78544893  0.72903959  1
  Ca  Ca10  1  0.50000000  0.50000000  0.00000000  1
  Ca  Ca11  1  0.01994917  0.54631812  0.10487351  1
  Ca  Ca12  1  0.98141859  0.12324710  0.57125777  1
  Ca  Ca13  1  0.48141859  0.87675290  0.92874223  1
  Ca  Ca14  1  0.51994917  0.45368188  0.39512649  1
  Ca  Ca15  1  0.00266407  0.21455107  0.77096041  1
  Ta  Ta16  1  0.49156513  0.32611405  0.83556089  1
  Ta  Ta17  1  0.51070400  0.83246255  0.33567357  1
  Ta  Ta18  1  0.99156513  0.67388595  0.66443911  1
  Ta  Ta19  1  0.01070400  0.16753745  0.16432643  1
  Ta  Ta20  1  0.98929600  0.83246255  0.83567357  1
  Ta  Ta21  1  0.00843487  0.32611405  0.33556089  1
  Ta  Ta22  1  0.48929600  0.16753745  0.66432643  1
  Ta  Ta23  1  0.50843487  0.67388595  0.16443911  1
  O  O24  1  0.59136064  0.27654831  0.73488974  1
  O  O25  1  0.32116028  0.12206597  0.89847698  1
  O  O26  1  0.79661147  0.69815524  0.37073964  1
  O  O27  1  0.32991676  0.67191934  0.44658253  1
  O  O28  1  0.78934253  0.23602530  0.90350743  1
  O  O29  1  0.11787648  0.05676690  0.10674463  1
  O  O30  1  0.88485554  0.62279135  0.57611254  1
  O  O31  1  0.19830081  0.45430195  0.74991707  1
  O  O32  1  0.70929615  0.02006109  0.21781027  1
  O  O33  1  0.20929615  0.97993891  0.28218973  1
  O  O34  1  0.69830081  0.54569805  0.75008293  1
  O  O35  1  0.38485554  0.37720865  0.92388746  1
  O  O36  1  0.61787648  0.94323310  0.39325537  1
  O  O37  1  0.28934253  0.76397470  0.59649257  1
  O  O38  1  0.82991676  0.32808066  0.05341747  1
  O  O39  1  0.29661147  0.30184476  0.12926036  1
  O  O40  1  0.82116028  0.87793403  0.60152302  1
  O  O41  1  0.09136064  0.72345169  0.76511026  1
  O  O42  1  0.90863936  0.27654831  0.23488974  1
  O  O43  1  0.17883972  0.12206597  0.39847698  1
  O  O44  1  0.70338853  0.69815524  0.87073964  1
  O  O45  1  0.17008324  0.67191934  0.94658253  1
  O  O46  1  0.71065747  0.23602530  0.40350743  1
  O  O47  1  0.38212352  0.05676690  0.60674463  1
  O  O48  1  0.61514446  0.62279135  0.07611254  1
  O  O49  1  0.30169919  0.45430195  0.24991707  1
  O  O50  1  0.79070385  0.02006109  0.71781027  1
  O  O51  1  0.29070385  0.97993891  0.78218973  1
  O  O52  1  0.80169919  0.54569805  0.25008293  1
  O  O53  1  0.11514446  0.37720865  0.42388746  1
  O  O54  1  0.88212352  0.94323310  0.89325537  1
  O  O55  1  0.21065747  0.76397470  0.09649257  1
  O  O56  1  0.67008324  0.32808066  0.55341747  1
  O  O57  1  0.20338853  0.30184476  0.62926036  1
  O  O58  1  0.67883972  0.87793403  0.10152302  1
  O  O59  1  0.40863936  0.72345169  0.26511026  1
