# generated using pymatgen
data_Er3Sb5O12
_symmetry_space_group_name_H-M   'P 1'
_cell_length_a   9.25180615
_cell_length_b   9.25188819
_cell_length_c   9.25209664
_cell_angle_alpha   109.47113411
_cell_angle_beta   109.47079726
_cell_angle_gamma   109.46999851
_symmetry_Int_Tables_number   1
_chemical_formula_structural   Er3Sb5O12
_chemical_formula_sum   'Er6 Sb10 O24'
_cell_volume   609.65543954
_cell_formula_units_Z   2
loop_
 _symmetry_equiv_pos_site_id
 _symmetry_equiv_pos_as_xyz
  1  'x, y, z'
loop_
 _atom_site_type_symbol
 _atom_site_label
 _atom_site_symmetry_multiplicity
 _atom_site_fract_x
 _atom_site_fract_y
 _atom_site_fract_z
 _atom_site_occupancy
  Er  Er0  1  0.74997285  0.24999633  0.49997822  1
  Er  Er1  1  0.75000580  0.50001090  0.24999793  1
  Er  Er2  1  0.50000731  0.25000974  0.75001312  1
  Er  Er3  1  0.49997853  0.74998652  0.24999471  1
  Er  Er4  1  0.25000852  0.74997675  0.50000211  1
  Er  Er5  1  0.24997963  0.49995824  0.74997796  1
  Sb  Sb6  1  0.51833584  0.00001136  0.00000832  1
  Sb  Sb7  1  0.28163517  -0.00000668  0.28164756  1
  Sb  Sb8  1  0.28165479  0.28165157  0.00001720  1
  Sb  Sb9  1  0.71836457  0.00000863  0.71835551  1
  Sb  Sb10  1  0.71834625  0.71836348  0.00001145  1
  Sb  Sb11  1  0.00000639  0.51832658  0.00000055  1
  Sb  Sb12  1  0.00000184  -0.00000019  0.51832286  1
  Sb  Sb13  1  0.48167928  0.48166964  0.48166558  1
  Sb  Sb14  1  -0.00001306  0.28164163  0.28162303  1
  Sb  Sb15  1  0.00000677  0.71835223  0.71835536  1
  O  O16  1  0.47934846  0.00000404  0.20107895  1
  O  O17  1  0.47934967  0.20107485  0.00000051  1
  O  O18  1  0.70342918  0.50128681  -0.00000434  1
  O  O19  1  0.70341424  -0.00000327  0.50126475  1
  O  O20  1  0.79784521  0.29657964  0.29656946  1
  O  O21  1  0.49874872  0.49875212  0.20216069  1
  O  O22  1  0.49873405  0.20215676  0.49874560  1
  O  O23  1  0.50127303  0.70341451  -0.00000870  1
  O  O24  1  0.50128667  0.00000604  0.70342650  1
  O  O25  1  0.72171405  0.52064713  0.52065186  1
  O  O26  1  0.79892775  0.27827922  0.79893033  1
  O  O27  1  0.79894300  0.79893836  0.27828394  1
  O  O28  1  0.20106752  0.47934494  0.00000359  1
  O  O29  1  0.20106884  0.00000166  0.47935102  1
  O  O30  1  0.52064362  0.72172365  0.52064731  1
  O  O31  1  0.52064660  0.52064732  0.72173250  1
  O  O32  1  0.99999533  0.47934432  0.20106485  1
  O  O33  1  0.00000399  0.20106987  0.47934667  1
  O  O34  1  0.29657820  0.79785213  0.29658798  1
  O  O35  1  0.29657538  0.29657230  0.79784740  1
  O  O36  1  0.20215162  0.49872836  0.49873388  1
  O  O37  1  0.00000713  0.70342550  0.50127731  1
  O  O38  1  -0.00000497  0.50126852  0.70341377  1
  O  O39  1  0.27828123  0.79893251  0.79892573  1
