# generated using pymatgen
data_GeW2C10(BrO5)2
_symmetry_space_group_name_H-M   'P 1'
_cell_length_a   13.31912900
_cell_length_b   9.66663100
_cell_length_c   15.43103654
_cell_angle_alpha   87.65181790
_cell_angle_beta   90.00000000
_cell_angle_gamma   90.00000000
_symmetry_Int_Tables_number   1
_chemical_formula_structural   GeW2C10(BrO5)2
_chemical_formula_sum   'Ge4 W8 C40 Br8 O40'
_cell_volume   1985.09471261
_cell_formula_units_Z   4
loop_
 _symmetry_equiv_pos_site_id
 _symmetry_equiv_pos_as_xyz
  1  'x, y, z'
loop_
 _atom_site_type_symbol
 _atom_site_label
 _atom_site_symmetry_multiplicity
 _atom_site_fract_x
 _atom_site_fract_y
 _atom_site_fract_z
 _atom_site_occupancy
  Ge  Ge0  1  0.22841000  0.00176100  0.23119500  1
  Ge  Ge1  1  0.72841000  0.49823900  0.26880500  1
  Ge  Ge2  1  0.27159000  0.50176100  0.73119500  1
  Ge  Ge3  1  0.77159000  0.99823900  0.76880500  1
  W  W4  1  0.31293200  0.29823400  0.84837200  1
  W  W5  1  0.18706800  0.79823400  0.34837200  1
  W  W6  1  0.70284200  0.88302000  0.62678500  1
  W  W7  1  0.29715800  0.11698000  0.37321500  1
  W  W8  1  0.79715800  0.38302000  0.12678500  1
  W  W9  1  0.81293200  0.20176600  0.65162800  1
  W  W10  1  0.20284200  0.61698000  0.87321500  1
  W  W11  1  0.68706800  0.70176600  0.15162800  1
  C  C12  1  0.14279600  0.77488300  0.94074000  1
  C  C13  1  0.85720400  0.22511700  0.05926000  1
  C  C14  1  0.17708200  0.72337700  0.22464600  1
  C  C15  1  0.13954400  0.60192400  0.37950900  1
  C  C16  1  0.72981700  0.72046700  0.71645700  1
  C  C17  1  0.17302800  0.82413600  0.48295100  1
  C  C18  1  0.85266300  0.50629900  0.02265600  1
  C  C19  1  0.43492900  0.07732900  0.31544100  1
  C  C20  1  0.64733700  0.00629900  0.52265600  1
  C  C21  1  0.27018300  0.27953300  0.28354300  1
  C  C22  1  0.22981700  0.77953300  0.78354300  1
  C  C23  1  0.64279600  0.72511700  0.55926000  1
  C  C24  1  0.03990700  0.87072200  0.33891000  1
  C  C25  1  0.86045600  0.39807600  0.62049100  1
  C  C26  1  0.82697200  0.17586400  0.51704900  1
  C  C27  1  0.34322500  0.64848200  0.92979700  1
  C  C28  1  0.32291800  0.22337700  0.72464600  1
  C  C29  1  0.53990700  0.62927800  0.16109000  1
  C  C30  1  0.56507100  0.92267100  0.68455900  1
  C  C31  1  0.84322500  0.85151800  0.57020300  1
  C  C32  1  0.46009300  0.37072200  0.83891000  1
  C  C33  1  0.96009300  0.12927800  0.66109000  1
  C  C34  1  0.67708200  0.77662300  0.27535400  1
  C  C35  1  0.16327000  0.23660800  0.85715000  1
  C  C36  1  0.67302800  0.67586400  0.01704900  1
  C  C37  1  0.32697200  0.32413600  0.98295100  1
  C  C38  1  0.33673000  0.73660800  0.35715000  1
  C  C39  1  0.93492900  0.42267100  0.18455900  1
  C  C40  1  0.82291800  0.27662300  0.77535400  1
  C  C41  1  0.15677500  0.14848200  0.42979700  1
  C  C42  1  0.06507100  0.57732900  0.81544100  1
  C  C43  1  0.36045600  0.10192400  0.87950900  1
  C  C44  1  0.35720400  0.27488300  0.44074000  1
  C  C45  1  0.35266300  0.99370100  0.47734400  1
  C  C46  1  0.83673000  0.76339200  0.14285000  1
  C  C47  1  0.77018300  0.22046700  0.21645700  1
  C  C48  1  0.65677500  0.35151800  0.07020300  1
  C  C49  1  0.66327000  0.26339200  0.64285000  1
  C  C50  1  0.63954400  0.89807600  0.12049100  1
  C  C51  1  0.14733700  0.49370100  0.97734400  1
  Br  Br52  1  0.15704300  0.45850700  0.61955500  1
  Br  Br53  1  0.34295700  0.95850700  0.11955500  1
  Br  Br54  1  0.59416300  0.40107500  0.34699300  1
  Br  Br55  1  0.09416300  0.09892500  0.15300700  1
  Br  Br56  1  0.40583700  0.59892500  0.65300700  1
  Br  Br57  1  0.65704300  0.04149300  0.88044500  1
  Br  Br58  1  0.90583700  0.90107500  0.84699300  1
  Br  Br59  1  0.84295700  0.54149300  0.38044500  1
  O  O60  1  0.66856900  0.82817400  0.34162600  1
  O  O61  1  0.34217700  0.33233000  0.05641100  1
  O  O62  1  0.08012900  0.20126600  0.86162700  1
  O  O63  1  0.51221400  0.05502700  0.28451200  1
  O  O64  1  0.89065500  0.13382800  0.02231100  1
  O  O65  1  0.83143100  0.32817400  0.84162600  1
  O  O66  1  0.04228500  0.09030900  0.66557700  1
  O  O67  1  0.45771500  0.59030900  0.16557700  1
  O  O68  1  0.33143100  0.17182600  0.65837400  1
  O  O69  1  0.39065500  0.36617200  0.47768900  1
  O  O70  1  0.91987100  0.79873400  0.13837300  1
  O  O71  1  0.89337500  0.56652600  0.96642300  1
  O  O72  1  0.41987100  0.70126600  0.36162700  1
  O  O73  1  0.48778600  0.94497300  0.71548800  1
  O  O74  1  0.11377300  0.48934800  0.39636200  1
  O  O75  1  0.01221400  0.44497300  0.21548800  1
  O  O76  1  0.15782300  0.83233000  0.55641100  1
  O  O77  1  0.60934500  0.63382800  0.52231100  1
  O  O78  1  0.07915800  0.16755900  0.46128400  1
  O  O79  1  0.10662500  0.43347400  0.03357700  1
  O  O80  1  0.57915800  0.33244100  0.03871600  1
  O  O81  1  0.39337500  0.93347400  0.53357700  1
  O  O82  1  0.25819600  0.37780000  0.23898400  1
  O  O83  1  0.60662500  0.06652600  0.46642300  1
  O  O84  1  0.58012900  0.29873400  0.63837300  1
  O  O85  1  0.98778600  0.55502700  0.78451200  1
  O  O86  1  0.95771500  0.90969100  0.33442300  1
  O  O87  1  0.61377300  0.01065200  0.10363800  1
  O  O88  1  0.38622700  0.98934800  0.89636200  1
  O  O89  1  0.65782300  0.66767000  0.94358900  1
  O  O90  1  0.74180400  0.62220000  0.76101600  1
  O  O91  1  0.42084200  0.66755900  0.96128400  1
  O  O92  1  0.54228500  0.40969100  0.83442300  1
  O  O93  1  0.92084200  0.83244100  0.53871600  1
  O  O94  1  0.24180400  0.87780000  0.73898400  1
  O  O95  1  0.84217700  0.16767000  0.44358900  1
  O  O96  1  0.16856900  0.67182600  0.15837400  1
  O  O97  1  0.88622700  0.51065200  0.60363800  1
  O  O98  1  0.10934500  0.86617200  0.97768900  1
  O  O99  1  0.75819600  0.12220000  0.26101600  1
