# generated using pymatgen
data_Hf2N2O
_symmetry_space_group_name_H-M   'P 1'
_cell_length_a   8.64876209
_cell_length_b   8.66889732
_cell_length_c   8.67194493
_cell_angle_alpha   109.40571256
_cell_angle_beta   109.33451991
_cell_angle_gamma   109.37598965
_symmetry_Int_Tables_number   1
_chemical_formula_structural   Hf2N2O
_chemical_formula_sum   'Hf16 N16 O8'
_cell_volume   502.33834744
_cell_formula_units_Z   8
loop_
 _symmetry_equiv_pos_site_id
 _symmetry_equiv_pos_as_xyz
  1  'x, y, z'
loop_
 _atom_site_type_symbol
 _atom_site_label
 _atom_site_symmetry_multiplicity
 _atom_site_fract_x
 _atom_site_fract_y
 _atom_site_fract_z
 _atom_site_occupancy
  Hf  Hf0  1  0.00987559  0.49748456  0.99639880  1
  Hf  Hf1  1  0.74830518  0.53163819  0.28837697  1
  Hf  Hf2  1  0.22380851  0.75337353  0.47302165  1
  Hf  Hf3  1  0.70500078  0.74253147  0.95853413  1
  Hf  Hf4  1  0.25436215  0.96358110  0.21292347  1
  Hf  Hf5  1  0.04224844  0.29241527  0.25702907  1
  Hf  Hf6  1  0.99777863  0.00513767  0.50839014  1
  Hf  Hf7  1  0.49165344  0.99809290  0.99689491  1
  Hf  Hf8  1  0.96553572  0.71340898  0.74080935  1
  Hf  Hf9  1  0.52893847  0.79264218  0.24915422  1
  Hf  Hf10  1  0.51137094  0.50944833  0.51648281  1
  Hf  Hf11  1  0.46478160  0.21698028  0.75753493  1
  Hf  Hf12  1  0.75168936  0.03207256  0.78234750  1
  Hf  Hf13  1  0.28252561  0.24513556  0.02656395  1
  Hf  Hf14  1  0.78811561  0.24997105  0.53077793  1
  Hf  Hf15  1  0.24865409  0.46440839  0.71336168  1
  N  N16  1  0.03398234  0.26352598  0.99301547  1
  N  N17  1  0.54964622  0.27643178  0.03587613  1
  N  N18  1  0.26833653  0.72528471  0.23597242  1
  N  N19  1  0.46879982  0.95828560  0.72565011  1
  N  N20  1  0.01355609  0.77109115  0.54015534  1
  N  N21  1  0.45843442  0.72942129  0.96742006  1
  N  N22  1  0.27049057  0.54198403  0.50465551  1
  N  N23  1  0.98415827  0.22066062  0.44592080  1
  N  N24  1  0.22478299  0.23262439  0.76913414  1
  N  N25  1  0.76077134  0.98781021  0.53452026  1
  N  N26  1  0.53027880  0.04645308  0.27252142  1
  N  N27  1  0.74006824  0.77370576  0.73368754  1
  N  N28  1  0.51616453  0.46421326  0.73859519  1
  N  N29  1  0.22353416  0.96727462  0.95755157  1
  N  N30  1  0.72272032  0.45218652  0.48261986  1
  N  N31  1  0.04403222  0.51166794  0.77492888  1
  O  O32  1  0.94868591  0.48374477  0.22356888  1
  O  O33  1  0.96165235  0.73570106  0.01911804  1
  O  O34  1  0.77177852  0.75833096  0.22565943  1
  O  O35  1  0.23728098  0.01591977  0.46081157  1
  O  O36  1  0.26292275  0.22795155  0.27598565  1
  O  O37  1  0.73005429  0.27713708  0.76520200  1
  O  O38  1  0.77355380  0.03490900  0.04787444  1
  O  O39  1  0.48966544  0.53535885  0.26095580  1
