# generated using pymatgen
data_Ca3CdO4
_symmetry_space_group_name_H-M   'P 1'
_cell_length_a   3.39230677
_cell_length_b   5.84626461
_cell_length_c   5.84626461
_cell_angle_alpha   70.33339813
_cell_angle_beta   90.00000000
_cell_angle_gamma   90.00000000
_symmetry_Int_Tables_number   1
_chemical_formula_structural   Ca3CdO4
_chemical_formula_sum   'Ca3 Cd1 O4'
_cell_volume   109.18157408
_cell_formula_units_Z   1
loop_
 _symmetry_equiv_pos_site_id
 _symmetry_equiv_pos_as_xyz
  1  'x, y, z'
loop_
 _atom_site_type_symbol
 _atom_site_label
 _atom_site_symmetry_multiplicity
 _atom_site_fract_x
 _atom_site_fract_y
 _atom_site_fract_z
 _atom_site_occupancy
  Ca  Ca0  1  0.00000000  0.50000000  0.50000000  1
  Ca  Ca1  1  0.50000000  -0.00000000  0.50000000  1
  Ca  Ca2  1  0.50000000  0.50000000  0.00000000  1
  Cd  Cd3  1  0.00000000  -0.00000000  0.00000000  1
  O  O4  1  -0.00000000  0.74740258  0.74740258  1
  O  O5  1  0.50000000  0.25270534  0.74729466  1
  O  O6  1  0.50000000  0.74729466  0.25270534  1
  O  O7  1  0.00000000  0.25259742  0.25259742  1
