# generated using pymatgen
data_Li4CrO4
_symmetry_space_group_name_H-M   'P 1'
_cell_length_a   7.60559334
_cell_length_b   5.13483180
_cell_length_c   5.10141691
_cell_angle_alpha   67.77841777
_cell_angle_beta   96.97795168
_cell_angle_gamma   109.26477236
_symmetry_Int_Tables_number   1
_chemical_formula_structural   Li4CrO4
_chemical_formula_sum   'Li8 Cr2 O8'
_cell_volume   174.10224915
_cell_formula_units_Z   2
loop_
 _symmetry_equiv_pos_site_id
 _symmetry_equiv_pos_as_xyz
  1  'x, y, z'
loop_
 _atom_site_type_symbol
 _atom_site_label
 _atom_site_symmetry_multiplicity
 _atom_site_fract_x
 _atom_site_fract_y
 _atom_site_fract_z
 _atom_site_occupancy
  Li  Li0  1  0.00404286  0.24033513  0.25857856  1
  Li  Li1  1  0.20863241  0.39296619  0.78345877  1
  Li  Li2  1  0.41601734  0.91832568  0.74973988  1
  Li  Li3  1  0.43788171  0.49078070  0.23973088  1
  Li  Li4  1  0.56211645  0.50922002  0.76025825  1
  Li  Li5  1  0.58398331  0.08167817  0.25026210  1
  Li  Li6  1  0.79136626  0.60703264  0.21654245  1
  Li  Li7  1  0.99595830  0.75966219  0.74142597  1
  Cr  Cr8  1  0.22583976  0.83721774  0.21973197  1
  Cr  Cr9  1  0.77416187  0.16279244  0.78026155  1
  O  O10  1  0.02062758  0.84094360  0.33913800  1
  O  O11  1  0.19467616  0.62576180  0.00173252  1
  O  O12  1  0.38362931  0.69893653  0.48731698  1
  O  O13  1  0.37536722  0.19335355  0.02526760  1
  O  O14  1  0.62463739  0.80665674  0.97472429  1
  O  O15  1  0.61636552  0.30106371  0.51267968  1
  O  O16  1  0.80532615  0.37423654  0.99827273  1
  O  O17  1  0.97937239  0.15903563  0.66087781  1
