# generated using pymatgen
data_BaCaI4
_symmetry_space_group_name_H-M   'P 1'
_cell_length_a   8.34645047
_cell_length_b   7.96241171
_cell_length_c   8.31462302
_cell_angle_alpha   78.70365373
_cell_angle_beta   90.00000000
_cell_angle_gamma   90.00000000
_symmetry_Int_Tables_number   1
_chemical_formula_structural   BaCaI4
_chemical_formula_sum   'Ba2 Ca2 I8'
_cell_volume   541.86728039
_cell_formula_units_Z   2
loop_
 _symmetry_equiv_pos_site_id
 _symmetry_equiv_pos_as_xyz
  1  'x, y, z'
loop_
 _atom_site_type_symbol
 _atom_site_label
 _atom_site_symmetry_multiplicity
 _atom_site_fract_x
 _atom_site_fract_y
 _atom_site_fract_z
 _atom_site_occupancy
  Ba  Ba0  1  0.27087258  0.50000000  0.75000000  1
  Ba  Ba1  1  0.72912742  0.50000000  0.25000000  1
  Ca  Ca2  1  0.83874700  -0.00000000  0.75000000  1
  Ca  Ca3  1  0.16125300  -0.00000000  0.25000000  1
  I  I4  1  0.57071209  0.75313234  0.90010888  1
  I  I5  1  0.93237193  0.75210464  0.50818604  1
  I  I6  1  0.42928791  0.75313234  0.40010888  1
  I  I7  1  0.06762807  0.75210464  0.00818604  1
  I  I8  1  0.93237193  0.24789536  0.99181396  1
  I  I9  1  0.57071209  0.24686766  0.59989112  1
  I  I10  1  0.06762807  0.24789536  0.49181396  1
  I  I11  1  0.42928791  0.24686766  0.09989112  1
