# generated using pymatgen
data_Na2SeO5
_symmetry_space_group_name_H-M   'P 1'
_cell_length_a   6.18457052
_cell_length_b   6.18457052
_cell_length_c   7.91948700
_cell_angle_alpha   90.00000000
_cell_angle_beta   90.00000000
_cell_angle_gamma   118.98969483
_symmetry_Int_Tables_number   1
_chemical_formula_structural   Na2SeO5
_chemical_formula_sum   'Na4 Se2 O10'
_cell_volume   264.95900813
_cell_formula_units_Z   2
loop_
 _symmetry_equiv_pos_site_id
 _symmetry_equiv_pos_as_xyz
  1  'x, y, z'
loop_
 _atom_site_type_symbol
 _atom_site_label
 _atom_site_symmetry_multiplicity
 _atom_site_fract_x
 _atom_site_fract_y
 _atom_site_fract_z
 _atom_site_occupancy
  Na  Na0  1  0.00000000  0.00000000  0.50000000  1
  Na  Na1  1  0.00000000  0.00000000  0.00000000  1
  Na  Na2  1  0.64677500  0.35322500  0.75000000  1
  Na  Na3  1  0.35322500  0.64677500  0.25000000  1
  Se  Se4  1  0.22283800  0.77716200  0.75000000  1
  Se  Se5  1  0.77716200  0.22283800  0.25000000  1
  O  O6  1  0.93418600  0.06581400  0.25000000  1
  O  O7  1  0.06581400  0.93418600  0.75000000  1
  O  O8  1  0.96696300  0.57535100  0.94471400  1
  O  O9  1  0.57535100  0.96696300  0.05528600  1
  O  O10  1  0.96696300  0.57535100  0.55528600  1
  O  O11  1  0.57535100  0.96696300  0.44471400  1
  O  O12  1  0.03303700  0.42464900  0.05528600  1
  O  O13  1  0.42464900  0.03303700  0.94471400  1
  O  O14  1  0.03303700  0.42464900  0.44471400  1
  O  O15  1  0.42464900  0.03303700  0.55528600  1
