# generated using pymatgen
data_LaAsO4
_symmetry_space_group_name_H-M   'P 1'
_cell_length_a   6.17772194
_cell_length_b   6.17772194
_cell_length_c   6.17772194
_cell_angle_alpha   106.46033170
_cell_angle_beta   106.46033170
_cell_angle_gamma   115.67698573
_symmetry_Int_Tables_number   1
_chemical_formula_structural   LaAsO4
_chemical_formula_sum   'La2 As2 O8'
_cell_volume   179.88046883
_cell_formula_units_Z   2
loop_
 _symmetry_equiv_pos_site_id
 _symmetry_equiv_pos_as_xyz
  1  'x, y, z'
loop_
 _atom_site_type_symbol
 _atom_site_label
 _atom_site_symmetry_multiplicity
 _atom_site_fract_x
 _atom_site_fract_y
 _atom_site_fract_z
 _atom_site_occupancy
  La  La0  1  -0.00000000  0.00000000  -0.00000000  1
  La  La1  1  0.75000000  0.25000000  0.50000000  1
  As  As2  1  0.50000000  0.50000000  -0.00000000  1
  As  As3  1  0.25000000  0.75000000  0.50000000  1
  O  O4  1  0.51303513  0.33569309  0.17734304  1
  O  O5  1  0.66430691  0.84165096  0.17734304  1
  O  O6  1  0.08569309  0.40834904  0.32265696  1
  O  O7  1  0.66430691  0.48696487  0.82265696  1
  O  O8  1  0.59165096  0.91430691  0.67734304  1
  O  O9  1  0.23696487  0.91430691  0.32265696  1
  O  O10  1  0.15834904  0.33569309  0.82265696  1
  O  O11  1  0.08569309  0.76303513  0.67734304  1
