# generated using pymatgen
data_K2MgO2
_symmetry_space_group_name_H-M   'P 1'
_cell_length_a   5.43970098
_cell_length_b   5.96587279
_cell_length_c   10.40397358
_cell_angle_alpha   90.00000000
_cell_angle_beta   90.00000000
_cell_angle_gamma   90.00000000
_symmetry_Int_Tables_number   1
_chemical_formula_structural   K2MgO2
_chemical_formula_sum   'K8 Mg4 O8'
_cell_volume   337.63561911
_cell_formula_units_Z   4
loop_
 _symmetry_equiv_pos_site_id
 _symmetry_equiv_pos_as_xyz
  1  'x, y, z'
loop_
 _atom_site_type_symbol
 _atom_site_label
 _atom_site_symmetry_multiplicity
 _atom_site_fract_x
 _atom_site_fract_y
 _atom_site_fract_z
 _atom_site_occupancy
  K  K0  1  0.96667108  0.37577005  0.15501626  1
  K  K1  1  0.46667108  0.62422995  0.15501626  1
  K  K2  1  0.46667108  0.12422995  0.34498374  1
  K  K3  1  0.96667108  0.87577005  0.34498374  1
  K  K4  1  0.03332892  0.12422995  0.65501626  1
  K  K5  1  0.53332892  0.87577005  0.65501626  1
  K  K6  1  0.53332892  0.37577005  0.84498374  1
  K  K7  1  0.03332892  0.62422995  0.84498374  1
  Mg  Mg8  1  0.25000000  0.00837180  -0.00000000  1
  Mg  Mg9  1  0.75000000  0.99162820  -0.00000000  1
  Mg  Mg10  1  0.75000000  0.49162820  0.50000000  1
  Mg  Mg11  1  0.25000000  0.50837180  0.50000000  1
  O  O12  1  0.00487614  0.81960586  0.09450354  1
  O  O13  1  0.50487614  0.18039414  0.09450354  1
  O  O14  1  0.00487614  0.31960586  0.40549646  1
  O  O15  1  0.50487614  0.68039414  0.40549646  1
  O  O16  1  0.49512386  0.31960586  0.59450354  1
  O  O17  1  0.99512386  0.68039414  0.59450354  1
  O  O18  1  0.99512386  0.18039414  0.90549646  1
  O  O19  1  0.49512386  0.81960586  0.90549646  1
