# generated using pymatgen
data_Li4Ti3V2(Fe2O9)2
_symmetry_space_group_name_H-M   'P 1'
_cell_length_a   9.17777917
_cell_length_b   25.50941843
_cell_length_c   2.95529800
_cell_angle_alpha   90.00005083
_cell_angle_beta   89.99996813
_cell_angle_gamma   89.97837385
_symmetry_Int_Tables_number   1
_chemical_formula_structural   Li4Ti3V2(Fe2O9)2
_chemical_formula_sum   'Li8 Ti6 V4 Fe8 O36'
_cell_volume   691.89375451
_cell_formula_units_Z   2
loop_
 _symmetry_equiv_pos_site_id
 _symmetry_equiv_pos_as_xyz
  1  'x, y, z'
loop_
 _atom_site_type_symbol
 _atom_site_label
 _atom_site_symmetry_multiplicity
 _atom_site_fract_x
 _atom_site_fract_y
 _atom_site_fract_z
 _atom_site_occupancy
  Li  Li0  1  0.19970600  0.98937400  0.99999900  1
  Li  Li1  1  0.19793600  0.18309800  0.00000000  1
  Li  Li2  1  0.30294000  0.68372300  0.99999900  1
  Li  Li3  1  0.29984200  0.48894500  0.00000000  1
  Li  Li4  1  0.69439500  0.50935100  0.99999900  1
  Li  Li5  1  0.68813300  0.31129800  0.00000000  1
  Li  Li6  1  0.81002800  0.81245900  0.99999900  1
  Li  Li7  1  0.80485100  0.00969900  0.00000100  1
  Ti  Ti8  1  0.00053700  0.09915600  0.99999900  1
  Ti  Ti9  1  0.49886200  0.59917800  0.00000000  1
  Ti  Ti10  1  0.49411100  0.40032200  0.00000100  1
  Ti  Ti11  1  0.65347800  0.69031500  0.50000200  1
  Ti  Ti12  1  0.84676600  0.19047100  0.50000000  1
  Ti  Ti13  1  0.00675900  0.90027300  0.00000100  1
  V  V14  1  0.99792100  0.49992200  0.99999900  1
  V  V15  1  0.15432800  0.80935600  0.50000200  1
  V  V16  1  0.34556200  0.30960000  0.50000100  1
  V  V17  1  0.50188200  0.99981700  0.00000000  1
  Fe  Fe18  1  0.00329300  0.30599000  0.00000100  1
  Fe  Fe19  1  0.14634700  0.58724800  0.50000000  1
  Fe  Fe20  1  0.35355000  0.08721000  0.49999800  1
  Fe  Fe21  1  0.49669800  0.80585700  0.00000100  1
  Fe  Fe22  1  0.50359100  0.19624700  0.99999900  1
  Fe  Fe23  1  0.65330000  0.91308700  0.50000100  1
  Fe  Fe24  1  0.84726400  0.41305600  0.49999900  1
  Fe  Fe25  1  0.99664100  0.69605200  0.99999900  1
  O  O26  1  0.99267800  0.42572100  0.99999800  1
  O  O27  1  0.00269800  0.57453200  0.00000200  1
  O  O28  1  0.06213700  0.94357500  0.50000000  1
  O  O29  1  0.04556500  0.15525100  0.49999900  1
  O  O30  1  0.12339000  0.66607600  0.49999900  1
  O  O31  1  0.09539500  0.76329100  0.00000000  1
  O  O32  1  0.14667600  0.50393600  0.49999900  1
  O  O33  1  0.14675900  0.29129700  0.50000100  1
  O  O34  1  0.18757200  0.85931100  0.99999800  1
  O  O35  1  0.20257200  0.08398500  0.99999900  1
  O  O36  1  0.29698100  0.58400100  0.00000100  1
  O  O37  1  0.31267800  0.35949200  0.00000000  1
  O  O38  1  0.35334800  0.79109000  0.50000000  1
  O  O39  1  0.35314100  0.00398000  0.50000200  1
  O  O40  1  0.40497100  0.26348000  0.00000200  1
  O  O41  1  0.37715900  0.16604200  0.49999700  1
  O  O42  1  0.45425300  0.65536400  0.50000200  1
  O  O43  1  0.43823800  0.44357800  0.50000000  1
  O  O44  1  0.49712100  0.07445700  0.00000000  1
  O  O45  1  0.50767700  0.92572200  0.00000200  1
  O  O46  1  0.55842600  0.55629600  0.50000000  1
  O  O47  1  0.54126300  0.34310700  0.50000000  1
  O  O48  1  0.62274500  0.83454300  0.50000100  1
  O  O49  1  0.59475900  0.73827100  0.00000300  1
  O  O50  1  0.65071600  0.99618600  0.50000000  1
  O  O51  1  0.64436400  0.21154400  0.49999900  1
  O  O52  1  0.68557900  0.64178900  0.99999900  1
  O  O53  1  0.69805900  0.41591000  0.00000000  1
  O  O54  1  0.80224600  0.91561000  0.00000000  1
  O  O55  1  0.81416700  0.14193400  0.99999800  1
  O  O56  1  0.85588200  0.71109300  0.49999900  1
  O  O57  1  0.84930800  0.49620300  0.50000100  1
  O  O58  1  0.90553900  0.23830400  0.99999800  1
  O  O59  1  0.87727300  0.33453100  0.50000000  1
  O  O60  1  0.95912600  0.84309500  0.50000100  1
  O  O61  1  0.94081800  0.05629700  0.49999900  1
