# generated using pymatgen
data_K5YO4
_symmetry_space_group_name_H-M   'P 1'
_cell_length_a   11.77991514
_cell_length_b   12.08980092
_cell_length_c   12.28607667
_cell_angle_alpha   90.00000000
_cell_angle_beta   90.00000000
_cell_angle_gamma   90.00000000
_symmetry_Int_Tables_number   1
_chemical_formula_structural   K5YO4
_chemical_formula_sum   'K40 Y8 O32'
_cell_volume   1749.74407893
_cell_formula_units_Z   8
loop_
 _symmetry_equiv_pos_site_id
 _symmetry_equiv_pos_as_xyz
  1  'x, y, z'
loop_
 _atom_site_type_symbol
 _atom_site_label
 _atom_site_symmetry_multiplicity
 _atom_site_fract_x
 _atom_site_fract_y
 _atom_site_fract_z
 _atom_site_occupancy
  K  K0  1  0.86091321  0.38352840  0.09446201  1
  K  K1  1  0.36091321  0.11647160  0.09446201  1
  K  K2  1  0.17697914  0.89612315  0.11524059  1
  K  K3  1  0.67697914  0.60387685  0.11524059  1
  K  K4  1  0.64125021  0.15136021  0.11954833  1
  K  K5  1  0.14125021  0.34863979  0.11954833  1
  K  K6  1  0.91866656  0.12511556  0.14255150  1
  K  K7  1  0.41866656  0.37488444  0.14255150  1
  K  K8  1  0.60004782  0.87870258  0.16779739  1
  K  K9  1  0.10004782  0.62129742  0.16779739  1
  K  K10  1  0.10004782  0.12129742  0.33220261  1
  K  K11  1  0.60004782  0.37870258  0.33220261  1
  K  K12  1  0.41866656  0.87488444  0.35744850  1
  K  K13  1  0.91866656  0.62511556  0.35744850  1
  K  K14  1  0.64125021  0.65136021  0.38045167  1
  K  K15  1  0.14125021  0.84863979  0.38045167  1
  K  K16  1  0.17697914  0.39612315  0.38475941  1
  K  K17  1  0.67697914  0.10387685  0.38475941  1
  K  K18  1  0.86091321  0.88352840  0.40553799  1
  K  K19  1  0.36091321  0.61647160  0.40553799  1
  K  K20  1  0.63908679  0.38352840  0.59446201  1
  K  K21  1  0.13908679  0.11647160  0.59446201  1
  K  K22  1  0.82302086  0.60387685  0.61524059  1
  K  K23  1  0.32302086  0.89612315  0.61524059  1
  K  K24  1  0.35874979  0.34863979  0.61954833  1
  K  K25  1  0.85874979  0.15136021  0.61954833  1
  K  K26  1  0.08133344  0.37488444  0.64255150  1
  K  K27  1  0.58133344  0.12511556  0.64255150  1
  K  K28  1  0.89995218  0.87870258  0.66779739  1
  K  K29  1  0.39995218  0.62129742  0.66779739  1
  K  K30  1  0.89995218  0.37870258  0.83220261  1
  K  K31  1  0.39995218  0.12129742  0.83220261  1
  K  K32  1  0.58133344  0.62511556  0.85744850  1
  K  K33  1  0.08133344  0.87488444  0.85744850  1
  K  K34  1  0.35874979  0.84863979  0.88045167  1
  K  K35  1  0.85874979  0.65136021  0.88045167  1
  K  K36  1  0.32302086  0.39612315  0.88475941  1
  K  K37  1  0.82302086  0.10387685  0.88475941  1
  K  K38  1  0.63908679  0.88352840  0.90553799  1
  K  K39  1  0.13908679  0.61647160  0.90553799  1
  Y  Y40  1  0.88760636  0.85187537  0.13005890  1
  Y  Y41  1  0.38760636  0.64812463  0.13005890  1
  Y  Y42  1  0.88760636  0.35187537  0.36994110  1
  Y  Y43  1  0.38760636  0.14812463  0.36994110  1
  Y  Y44  1  0.61239364  0.85187537  0.63005890  1
  Y  Y45  1  0.11239364  0.64812463  0.63005890  1
  Y  Y46  1  0.61239364  0.35187537  0.86994110  1
  Y  Y47  1  0.11239364  0.14812463  0.86994110  1
  O  O48  1  0.49792009  0.74350106  0.02348264  1
  O  O49  1  0.99792009  0.75649894  0.02348264  1
  O  O50  1  0.77425996  0.97247957  0.05647069  1
  O  O51  1  0.27425996  0.52752043  0.05647069  1
  O  O52  1  0.99804918  0.94190513  0.23825923  1
  O  O53  1  0.49804918  0.55809487  0.23825923  1
  O  O54  1  0.78247685  0.75641557  0.23835639  1
  O  O55  1  0.28247685  0.74358443  0.23835639  1
  O  O56  1  0.28247685  0.24358443  0.26164361  1
  O  O57  1  0.78247685  0.25641557  0.26164361  1
  O  O58  1  0.99804918  0.44190513  0.26174077  1
  O  O59  1  0.49804918  0.05809487  0.26174077  1
  O  O60  1  0.77425996  0.47247957  0.44352931  1
  O  O61  1  0.27425996  0.02752043  0.44352931  1
  O  O62  1  0.49792009  0.24350106  0.47651736  1
  O  O63  1  0.99792009  0.25649894  0.47651736  1
  O  O64  1  0.00207991  0.74350106  0.52348264  1
  O  O65  1  0.50207991  0.75649894  0.52348264  1
  O  O66  1  0.72574004  0.97247957  0.55647069  1
  O  O67  1  0.22574004  0.52752043  0.55647069  1
  O  O68  1  0.00195082  0.55809487  0.73825923  1
  O  O69  1  0.50195082  0.94190513  0.73825923  1
  O  O70  1  0.71752315  0.75641557  0.73835639  1
  O  O71  1  0.21752315  0.74358443  0.73835639  1
  O  O72  1  0.71752315  0.25641557  0.76164361  1
  O  O73  1  0.21752315  0.24358443  0.76164361  1
  O  O74  1  0.50195082  0.44190513  0.76174077  1
  O  O75  1  0.00195082  0.05809487  0.76174077  1
  O  O76  1  0.72574004  0.47247957  0.94352931  1
  O  O77  1  0.22574004  0.02752043  0.94352931  1
  O  O78  1  0.00207991  0.24350106  0.97651736  1
  O  O79  1  0.50207991  0.25649894  0.97651736  1
