# generated using pymatgen
data_Li8CrO6
_symmetry_space_group_name_H-M   'P 1'
_cell_length_a   5.46733335
_cell_length_b   5.46733467
_cell_length_c   10.64871009
_cell_angle_alpha   90.00000436
_cell_angle_beta   89.99991862
_cell_angle_gamma   119.99932876
_symmetry_Int_Tables_number   1
_chemical_formula_structural   Li8CrO6
_chemical_formula_sum   'Li16 Cr2 O12'
_cell_volume   275.66509949
_cell_formula_units_Z   2
loop_
 _symmetry_equiv_pos_site_id
 _symmetry_equiv_pos_as_xyz
  1  'x, y, z'
loop_
 _atom_site_type_symbol
 _atom_site_label
 _atom_site_symmetry_multiplicity
 _atom_site_fract_x
 _atom_site_fract_y
 _atom_site_fract_z
 _atom_site_occupancy
  Li  Li0  1  0.00005704  0.68738149  0.76704373  1
  Li  Li1  1  0.00000902  0.60905278  0.12883021  1
  Li  Li2  1  -0.00000748  0.39093845  0.62881818  1
  Li  Li3  1  -0.00005543  0.31262373  0.26705216  1
  Li  Li4  1  0.33333311  0.66666573  0.40722340  1
  Li  Li5  1  0.33333345  0.66666682  0.90722209  1
  Li  Li6  1  0.31268310  0.31268302  0.76705132  1
  Li  Li7  1  0.39095622  0.39095531  0.12883996  1
  Li  Li8  1  0.60905175  0.60905084  0.62882904  1
  Li  Li9  1  0.31262155  -0.00005534  0.26705239  1
  Li  Li10  1  0.68731654  0.68731607  0.26705929  1
  Li  Li11  1  0.39093522  -0.00001236  0.62881943  1
  Li  Li12  1  0.66666671  0.33333345  0.90722188  1
  Li  Li13  1  0.66666550  0.33333281  0.40722400  1
  Li  Li14  1  0.60905278  0.00000996  0.12883218  1
  Li  Li15  1  0.68738282  0.00005752  0.76704357  1
  Cr  Cr16  1  0.00000035  0.00000040  0.99464457  1
  Cr  Cr17  1  -0.00000150  -0.00000189  0.49464058  1
  O  O18  1  0.00000556  0.68986066  0.94975264  1
  O  O19  1  -0.00000598  0.31013981  0.44974818  1
  O  O20  1  0.33333045  0.66666214  0.21697897  1
  O  O21  1  -0.00000551  -0.00000537  0.16573394  1
  O  O22  1  0.00000621  0.00000564  0.66572561  1
  O  O23  1  0.33333808  0.66666896  0.71697033  1
  O  O24  1  0.31014141  0.31014149  0.94975336  1
  O  O25  1  0.31013928  -0.00000648  0.44974846  1
  O  O26  1  0.68985881  0.68985863  0.44974947  1
  O  O27  1  0.66666952  0.33333790  0.71697017  1
  O  O28  1  0.66666202  0.33333095  0.21697908  1
  O  O29  1  0.68986040  0.00000589  0.94975283  1
