# generated using pymatgen
data_NaV2O4
_symmetry_space_group_name_H-M   'P 1'
_cell_length_a   5.01856065
_cell_length_b   5.78265782
_cell_length_c   11.29190410
_cell_angle_alpha   89.99832838
_cell_angle_beta   89.99583028
_cell_angle_gamma   90.00190314
_symmetry_Int_Tables_number   1
_chemical_formula_structural   NaV2O4
_chemical_formula_sum   'Na4 V8 O16'
_cell_volume   327.69804565
_cell_formula_units_Z   4
loop_
 _symmetry_equiv_pos_site_id
 _symmetry_equiv_pos_as_xyz
  1  'x, y, z'
loop_
 _atom_site_type_symbol
 _atom_site_label
 _atom_site_symmetry_multiplicity
 _atom_site_fract_x
 _atom_site_fract_y
 _atom_site_fract_z
 _atom_site_occupancy
  Na  Na0  1  0.02983132  0.74998022  0.25000668  1
  Na  Na1  1  0.97020350  0.25001952  0.74999229  1
  Na  Na2  1  0.35114260  0.74999845  0.74999190  1
  Na  Na3  1  0.64882802  0.25000104  0.25000699  1
  V  V4  1  0.00670321  0.24988904  0.49155359  1
  V  V5  1  0.99328577  0.75009091  0.50844573  1
  V  V6  1  0.49999573  0.00000953  0.50000602  1
  V  V7  1  0.50000865  0.50003220  0.49999980  1
  V  V8  1  0.00669371  0.24998461  0.00845691  1
  V  V9  1  0.99327238  0.75002532  0.99155084  1
  V  V10  1  0.50001901  0.50000805  -0.00000840  1
  V  V11  1  0.50002865  -0.00004325  -0.00000301  1
  O  O12  1  0.34282104  0.24997983  0.09469490  1
  O  O13  1  0.34284726  0.25001590  0.40530182  1
  O  O14  1  0.65715064  0.75001525  0.59469594  1
  O  O15  1  0.65720301  0.74999103  0.90527225  1
  O  O16  1  0.32377663  0.74999170  0.08775233  1
  O  O17  1  0.32380115  0.75007787  0.41224149  1
  O  O18  1  0.67618953  0.24995308  0.58777467  1
  O  O19  1  0.67623386  0.24998357  0.91222337  1
  O  O20  1  0.16769644  0.00203280  0.59459257  1
  O  O21  1  0.16767105  0.00197650  0.90543323  1
  O  O22  1  0.16755826  0.49804195  0.59453590  1
  O  O23  1  0.16763820  0.49805235  0.90544888  1
  O  O24  1  0.83229429  0.99796774  0.40541586  1
  O  O25  1  0.83243301  0.50194021  0.40546530  1
  O  O26  1  0.83232092  0.99796303  0.09458567  1
  O  O27  1  0.83235114  0.50201656  0.09456549  1
