# generated using pymatgen
data_NaTmO2
_symmetry_space_group_name_H-M   'P 1'
_cell_length_a   5.80094304
_cell_length_b   7.24819502
_cell_length_c   5.92540010
_cell_angle_alpha   75.14633954
_cell_angle_beta   112.38575045
_cell_angle_gamma   75.84794428
_symmetry_Int_Tables_number   1
_chemical_formula_structural   NaTmO2
_chemical_formula_sum   'Na4 Tm4 O8'
_cell_volume   205.70803956
_cell_formula_units_Z   4
loop_
 _symmetry_equiv_pos_site_id
 _symmetry_equiv_pos_as_xyz
  1  'x, y, z'
loop_
 _atom_site_type_symbol
 _atom_site_label
 _atom_site_symmetry_multiplicity
 _atom_site_fract_x
 _atom_site_fract_y
 _atom_site_fract_z
 _atom_site_occupancy
  Na  Na0  1  0.80554112  0.38891775  0.05554112  1
  Na  Na1  1  0.43011129  0.13977841  0.18011129  1
  Na  Na2  1  0.56988871  0.86022159  0.81988871  1
  Na  Na3  1  0.19445888  0.61108225  0.94445888  1
  Tm  Tm4  1  0.94339869  0.11320262  0.69339869  1
  Tm  Tm5  1  0.68277957  0.63443985  0.43277957  1
  Tm  Tm6  1  0.31722043  0.36556015  0.56722043  1
  Tm  Tm7  1  0.05660131  0.88679738  0.30660131  1
  O  O8  1  0.93916564  0.62707633  0.23098068  1
  O  O9  1  0.83151387  0.87621045  0.54165147  1
  O  O10  1  0.29227568  0.87621045  0.08213708  1
  O  O11  1  0.56624197  0.37292367  0.35805600  1
  O  O12  1  0.43375803  0.62707633  0.64194400  1
  O  O13  1  0.70772432  0.12378955  0.91786292  1
  O  O14  1  0.16848613  0.12378955  0.45834853  1
  O  O15  1  0.06083436  0.37292367  0.76901932  1
