# generated using pymatgen
data_Na3IO
_symmetry_space_group_name_H-M   'P 1'
_cell_length_a   6.69174816
_cell_length_b   6.69174868
_cell_length_c   16.30793171
_cell_angle_alpha   90.00000029
_cell_angle_beta   89.99999627
_cell_angle_gamma   120.00144152
_symmetry_Int_Tables_number   1
_chemical_formula_structural   Na3IO
_chemical_formula_sum   'Na18 I6 O6'
_cell_volume   632.41537222
_cell_formula_units_Z   6
loop_
 _symmetry_equiv_pos_site_id
 _symmetry_equiv_pos_as_xyz
  1  'x, y, z'
loop_
 _atom_site_type_symbol
 _atom_site_label
 _atom_site_symmetry_multiplicity
 _atom_site_fract_x
 _atom_site_fract_y
 _atom_site_fract_z
 _atom_site_occupancy
  Na  Na0  1  0.16569746  0.83430259  0.92091598  1
  Na  Na1  1  0.16569629  0.83430382  0.57908522  1
  Na  Na2  1  0.05574898  0.52786894  0.75000177  1
  Na  Na3  1  0.16570432  0.33140214  0.57908540  1
  Na  Na4  1  0.16570540  0.33140436  0.92091577  1
  Na  Na5  1  0.47213112  0.94425096  0.75000167  1
  Na  Na6  1  0.47212028  0.52787976  0.75000172  1
  Na  Na7  1  0.33143757  0.16572273  0.07911828  1
  Na  Na8  1  0.33143532  0.16572161  0.42088062  1
  Na  Na9  1  0.66859545  0.83429453  0.92091578  1
  Na  Na10  1  0.66859814  0.83429589  0.57908540  1
  Na  Na11  1  0.52788986  0.47211021  0.24999834  1
  Na  Na12  1  0.52787859  0.05576949  0.24999830  1
  Na  Na13  1  0.83427716  0.66856223  0.07911828  1
  Na  Na14  1  0.83427860  0.66856504  0.42088061  1
  Na  Na15  1  0.94423069  0.47212152  0.24999840  1
  Na  Na16  1  0.83428584  0.16571414  0.07911794  1
  Na  Na17  1  0.83428716  0.16571296  0.42088096  1
  I  I18  1  0.33333106  0.66666901  0.09970982  1
  I  I19  1  0.00000028  -0.00000030  0.24999823  1
  I  I20  1  0.33333109  0.66666906  0.40028833  1
  I  I21  1  -0.00000011  0.00000046  0.75000182  1
  I  I22  1  0.66666901  0.33333113  0.59948574  1
  I  I23  1  0.66666885  0.33333090  0.90051615  1
  O  O24  1  0.33333379  0.66666660  0.85032368  1
  O  O25  1  0.00000044  0.00000047  0.00001769  1
  O  O26  1  -0.00000070  -0.00000073  0.49998234  1
  O  O27  1  0.33333315  0.66666596  0.64967830  1
  O  O28  1  0.66666616  0.33333308  0.35032553  1
  O  O29  1  0.66666672  0.33333347  0.14967293  1
