# generated using pymatgen
data_La(ClO4)3
_symmetry_space_group_name_H-M   'P 1'
_cell_length_a   9.84992070
_cell_length_b   9.84992070
_cell_length_c   9.84992076
_cell_angle_alpha   50.61825404
_cell_angle_beta   50.61825404
_cell_angle_gamma   50.61825621
_symmetry_Int_Tables_number   1
_chemical_formula_structural   La(ClO4)3
_chemical_formula_sum   'La2 Cl6 O24'
_cell_volume   526.16081366
_cell_formula_units_Z   2
loop_
 _symmetry_equiv_pos_site_id
 _symmetry_equiv_pos_as_xyz
  1  'x, y, z'
loop_
 _atom_site_type_symbol
 _atom_site_label
 _atom_site_symmetry_multiplicity
 _atom_site_fract_x
 _atom_site_fract_y
 _atom_site_fract_z
 _atom_site_occupancy
  La  La0  1  0.05973787  0.05973787  0.05973787  1
  La  La1  1  0.55973787  0.55973787  0.55973787  1
  Cl  Cl2  1  0.84496267  0.47081038  0.18482371  1
  Cl  Cl3  1  0.47081038  0.18482371  0.84496267  1
  Cl  Cl4  1  0.97081038  0.34496267  0.68482371  1
  Cl  Cl5  1  0.18482371  0.84496267  0.47081038  1
  Cl  Cl6  1  0.68482371  0.97081038  0.34496267  1
  Cl  Cl7  1  0.34496267  0.68482371  0.97081038  1
  O  O8  1  0.74281818  0.08144352  0.13930569  1
  O  O9  1  0.08144352  0.13930569  0.74281818  1
  O  O10  1  0.88222949  0.29411789  0.19951274  1
  O  O11  1  0.57147283  0.00015077  0.94821570  1
  O  O12  1  0.89286841  0.42159604  0.32843312  1
  O  O13  1  0.50015077  0.07147283  0.44821570  1
  O  O14  1  0.79411789  0.38222949  0.69951274  1
  O  O15  1  0.13930569  0.74281818  0.08144352  1
  O  O16  1  0.94821570  0.57147283  0.00015077  1
  O  O17  1  0.58144352  0.24281818  0.63930569  1
  O  O18  1  0.29411789  0.19951274  0.88222949  1
  O  O19  1  0.42159604  0.32843312  0.89286841  1
  O  O20  1  0.63930569  0.58144352  0.24281818  1
  O  O21  1  0.44821570  0.50015077  0.07147283  1
  O  O22  1  0.69951274  0.79411789  0.38222949  1
  O  O23  1  0.38222949  0.69951274  0.79411789  1
  O  O24  1  0.07147283  0.44821570  0.50015077  1
  O  O25  1  0.24281818  0.63930569  0.58144352  1
  O  O26  1  0.92159604  0.39286841  0.82843312  1
  O  O27  1  0.32843312  0.89286841  0.42159604  1
  O  O28  1  0.19951274  0.88222949  0.29411789  1
  O  O29  1  0.00015077  0.94821570  0.57147283  1
  O  O30  1  0.82843312  0.92159604  0.39286841  1
  O  O31  1  0.39286841  0.82843312  0.92159604  1
