# generated using pymatgen
data_Pr2S2O
_symmetry_space_group_name_H-M   'P 1'
_cell_length_a   7.25515415
_cell_length_b   7.14288540
_cell_length_c   8.61920605
_cell_angle_alpha   81.44457220
_cell_angle_beta   90.00000000
_cell_angle_gamma   90.00000000
_symmetry_Int_Tables_number   1
_chemical_formula_structural   Pr2S2O
_chemical_formula_sum   'Pr8 S8 O4'
_cell_volume   441.70045858
_cell_formula_units_Z   4
loop_
 _symmetry_equiv_pos_site_id
 _symmetry_equiv_pos_as_xyz
  1  'x, y, z'
loop_
 _atom_site_type_symbol
 _atom_site_label
 _atom_site_symmetry_multiplicity
 _atom_site_fract_x
 _atom_site_fract_y
 _atom_site_fract_z
 _atom_site_occupancy
  Pr  Pr0  1  0.44416484  0.24836395  0.13738295  1
  Pr  Pr1  1  0.05583516  0.74836395  0.13738295  1
  Pr  Pr2  1  0.86468521  0.31361072  0.41860962  1
  Pr  Pr3  1  0.63531479  0.81361072  0.41860962  1
  Pr  Pr4  1  0.36468521  0.18638928  0.58139038  1
  Pr  Pr5  1  0.13531479  0.68638928  0.58139038  1
  Pr  Pr6  1  0.94416484  0.25163605  0.86261705  1
  Pr  Pr7  1  0.55583516  0.75163605  0.86261705  1
  S  S8  1  0.77505107  0.47176739  0.07877645  1
  S  S9  1  0.72494893  0.97176739  0.07877645  1
  S  S10  1  0.14491056  0.06299081  0.32406827  1
  S  S11  1  0.35508944  0.56299081  0.32406827  1
  S  S12  1  0.64491056  0.43700919  0.67593173  1
  S  S13  1  0.85508944  0.93700919  0.67593173  1
  S  S14  1  0.27505107  0.02823261  0.92122355  1
  S  S15  1  0.22494893  0.52823261  0.92122355  1
  O  O16  1  0.58747116  0.14913806  0.38268376  1
  O  O17  1  0.91252884  0.64913806  0.38268376  1
  O  O18  1  0.08747116  0.35086194  0.61731624  1
  O  O19  1  0.41252884  0.85086194  0.61731624  1
