# generated using pymatgen
data_Ho2WO6
_symmetry_space_group_name_H-M   'P 1'
_cell_length_a   5.31342495
_cell_length_b   7.59055420
_cell_length_c   11.31610264
_cell_angle_alpha   75.44261548
_cell_angle_beta   90.00000000
_cell_angle_gamma   90.00000000
_symmetry_Int_Tables_number   1
_chemical_formula_structural   Ho2WO6
_chemical_formula_sum   'Ho8 W4 O24'
_cell_volume   441.74717753
_cell_formula_units_Z   4
loop_
 _symmetry_equiv_pos_site_id
 _symmetry_equiv_pos_as_xyz
  1  'x, y, z'
loop_
 _atom_site_type_symbol
 _atom_site_label
 _atom_site_symmetry_multiplicity
 _atom_site_fract_x
 _atom_site_fract_y
 _atom_site_fract_z
 _atom_site_occupancy
  Ho  Ho0  1  0.73745327  -0.00000000  0.75000000  1
  Ho  Ho1  1  0.26254673  -0.00000000  0.25000000  1
  Ho  Ho2  1  0.18755985  0.79802770  0.57789860  1
  Ho  Ho3  1  0.81244015  0.79802770  0.07789860  1
  Ho  Ho4  1  0.68277326  0.50000000  0.75000000  1
  Ho  Ho5  1  0.31722674  0.50000000  0.25000000  1
  Ho  Ho6  1  0.18755985  0.20197230  0.92210140  1
  Ho  Ho7  1  0.81244015  0.20197230  0.42210140  1
  W  W8  1  0.25358785  0.72123587  0.88681111  1
  W  W9  1  0.74641215  0.72123587  0.38681111  1
  W  W10  1  0.25358785  0.27876413  0.61318889  1
  W  W11  1  0.74641215  0.27876413  0.11318889  1
  O  O12  1  0.03768056  0.93815911  0.89602366  1
  O  O13  1  0.52494887  0.85168518  0.93037165  1
  O  O14  1  0.96231944  0.93815911  0.39602366  1
  O  O15  1  0.46301881  0.78656758  0.72807438  1
  O  O16  1  0.47505113  0.85168518  0.43037165  1
  O  O17  1  0.98447275  0.71002672  0.77143217  1
  O  O18  1  0.53698119  0.78656758  0.22807438  1
  O  O19  1  0.84897536  0.63377319  0.54894668  1
  O  O20  1  0.35946578  0.48884251  0.88762623  1
  O  O21  1  0.01552725  0.71002672  0.27143217  1
  O  O22  1  0.35946578  0.51115749  0.61237377  1
  O  O23  1  0.84897536  0.36622681  0.95105332  1
  O  O24  1  0.15102464  0.63377319  0.04894668  1
  O  O25  1  0.64053422  0.48884251  0.38762623  1
  O  O26  1  0.98447275  0.28997328  0.72856783  1
  O  O27  1  0.64053422  0.51115749  0.11237377  1
  O  O28  1  0.15102464  0.36622681  0.45105332  1
  O  O29  1  0.46301881  0.21343242  0.77192562  1
  O  O30  1  0.01552725  0.28997328  0.22856783  1
  O  O31  1  0.52494887  0.14831482  0.56962835  1
  O  O32  1  0.53698119  0.21343242  0.27192562  1
  O  O33  1  0.03768056  0.06184089  0.60397634  1
  O  O34  1  0.47505113  0.14831482  0.06962835  1
  O  O35  1  0.96231944  0.06184089  0.10397634  1
