# generated using pymatgen
data_Ba10V10O29
_symmetry_space_group_name_H-M   'P 1'
_cell_length_a   11.62592747
_cell_length_b   10.00280805
_cell_length_c   13.23508239
_cell_angle_alpha   90.51558397
_cell_angle_beta   63.63839738
_cell_angle_gamma   90.27761460
_symmetry_Int_Tables_number   1
_chemical_formula_structural   Ba10V10O29
_chemical_formula_sum   'Ba20 V20 O58'
_cell_volume   1379.02152829
_cell_formula_units_Z   2
loop_
 _symmetry_equiv_pos_site_id
 _symmetry_equiv_pos_as_xyz
  1  'x, y, z'
loop_
 _atom_site_type_symbol
 _atom_site_label
 _atom_site_symmetry_multiplicity
 _atom_site_fract_x
 _atom_site_fract_y
 _atom_site_fract_z
 _atom_site_occupancy
  Ba  Ba0  1  0.85806200  0.16717900  0.78575900  1
  Ba  Ba1  1  0.95494400  0.83376200  0.59093700  1
  Ba  Ba2  1  0.60641300  0.66632900  0.78433000  1
  Ba  Ba3  1  0.70281300  0.33583200  0.59121800  1
  Ba  Ba4  1  0.89164500  0.33357400  0.21373900  1
  Ba  Ba5  1  0.79302800  0.66466800  0.40999900  1
  Ba  Ba6  1  0.63790900  0.83026500  0.21507500  1
  Ba  Ba7  1  0.35120300  0.16822200  0.78565500  1
  Ba  Ba8  1  0.45182300  0.83267100  0.59070500  1
  Ba  Ba9  1  0.54245600  0.16730400  0.40957900  1
  Ba  Ba10  1  0.74909400  0.49655300  0.00097800  1
  Ba  Ba11  1  0.11374600  0.66572800  0.78468200  1
  Ba  Ba12  1  0.39597900  0.33473800  0.21677300  1
  Ba  Ba13  1  0.20728500  0.33356400  0.59015700  1
  Ba  Ba14  1  0.30039800  0.66645600  0.40729800  1
  Ba  Ba15  1  0.49967700  0.99650600  0.00060900  1
  Ba  Ba16  1  0.14714800  0.83427500  0.21367300  1
  Ba  Ba17  1  0.04756700  0.16555500  0.41031100  1
  Ba  Ba18  1  0.24944000  0.50371900  0.99888300  1
  Ba  Ba19  1  0.00177000  0.00404800  0.99998600  1
  V  V20  1  0.78854600  0.84326800  0.89246000  1
  V  V21  1  0.89985400  0.50443800  0.71805200  1
  V  V22  1  0.56951000  0.34390300  0.89506200  1
  V  V23  1  0.96119400  0.65718200  0.10882600  1
  V  V24  1  0.85036700  0.99715500  0.28382300  1
  V  V25  1  0.63198100  0.00642100  0.71665800  1
  V  V26  1  0.74589300  0.99864900  0.50004000  1
  V  V27  1  0.29492900  0.83125000  0.90565800  1
  V  V28  1  0.70764800  0.16620000  0.09058300  1
  V  V29  1  0.60951500  0.49926100  0.27814400  1
  V  V30  1  0.50083300  0.49962400  0.50033800  1
  V  V31  1  0.39130400  0.49859700  0.72260000  1
  V  V32  1  0.04955300  0.33172700  0.90576100  1
  V  V33  1  0.44995200  0.66970600  0.09642500  1
  V  V34  1  0.36751400  0.00499700  0.27772900  1
  V  V35  1  0.24831400  0.00134000  0.49902400  1
  V  V36  1  0.13826200  0.99761800  0.72167300  1
  V  V37  1  0.18095600  0.15692100  0.10923200  1
  V  V38  1  0.00340200  0.49908600  0.50129100  1
  V  V39  1  0.11472700  0.49851000  0.28486300  1
  O  O40  1  0.97218300  0.41980700  0.79958500  1
  O  O41  1  0.96344000  0.90585100  0.81934800  1
  O  O42  1  0.95333200  0.34897800  0.59828500  1
  O  O43  1  0.85137800  0.66847100  0.80762500  1
  O  O44  1  0.83861400  0.57728200  0.60744200  1
  O  O45  1  0.94790500  0.42082500  0.38956200  1
  O  O46  1  0.72636600  0.91734000  0.79799900  1
  O  O47  1  0.72607300  0.41832500  0.79817700  1
  O  O48  1  0.91232900  0.92139700  0.39018700  1
  O  O49  1  0.80141400  0.07792000  0.61061100  1
  O  O50  1  0.89993700  0.82385000  0.18539400  1
  O  O51  1  0.58677900  0.17417500  0.81297500  1
  O  O52  1  0.79757700  0.14954200  0.40057000  1
  O  O53  1  0.69695300  0.85032700  0.59860800  1
  O  O54  1  0.68570400  0.92014700  0.39530800  1
  O  O55  1  0.57954900  0.07923200  0.60508900  1
  O  O56  1  0.77714800  0.58824900  0.18842000  1
  O  O57  1  0.46443300  0.41036500  0.81390000  1
  O  O58  1  0.87486700  0.25198400  0.99905900  1
  O  O59  1  0.77976700  0.07817000  0.20163600  1
  O  O60  1  0.47917700  0.92062900  0.79975600  1
  O  O61  1  0.66401800  0.42540900  0.39750200  1
  O  O62  1  0.56287500  0.57351200  0.60633200  1
  O  O63  1  0.55517000  0.64774200  0.38956900  1
  O  O64  1  0.44579400  0.35107900  0.61014300  1
  O  O65  1  0.65277300  0.33670700  0.19793700  1
  O  O66  1  0.75207900  0.99495400  0.00294800  1
  O  O67  1  0.34990700  0.65897300  0.80054900  1
  O  O68  1  0.33975200  0.57548700  0.60067300  1
  O  O69  1  0.44055000  0.42377800  0.39408100  1
  O  O70  1  0.52431600  0.08434100  0.19669400  1
  O  O71  1  0.22337600  0.91531400  0.80604600  1
  O  O72  1  0.64412100  0.75516100  0.99365800  1
  O  O73  1  0.61637500  0.25089300  0.99681300  1
  O  O74  1  0.52783600  0.58457700  0.19198100  1
  O  O75  1  0.21916200  0.41537800  0.80701000  1
  O  O76  1  0.41621200  0.92384800  0.39215800  1
  O  O77  1  0.30903400  0.07464700  0.60117600  1
  O  O78  1  0.40230100  0.83329600  0.19344600  1
  O  O79  1  0.49658800  0.48607100  0.99647800  1
  O  O80  1  0.30373300  0.15313000  0.39414700  1
  O  O81  1  0.19225500  0.85150500  0.61093300  1
  O  O82  1  0.09822700  0.15697300  0.80131900  1
  O  O83  1  0.19111800  0.92719600  0.39618900  1
  O  O84  1  0.07958400  0.07141800  0.60796500  1
  O  O85  1  0.26963400  0.57824500  0.19973800  1
  O  O86  1  0.37720700  0.74952400  0.99710300  1
  O  O87  1  0.27891200  0.08561700  0.19237800  1
  O  O88  1  0.06562200  0.57870500  0.60399200  1
  O  O89  1  0.16901800  0.42162700  0.39485300  1
  O  O90  1  0.05278400  0.65032200  0.39943800  1
  O  O91  1  0.16638100  0.32445800  0.18404000  1
  O  O92  1  0.25486200  0.02354500  0.00292100  1
  O  O93  1  0.02368900  0.08022600  0.20067600  1
  O  O94  1  0.12251500  0.75243000  0.00232000  1
  O  O95  1  0.12400400  0.25091000  0.00371700  1
  O  O96  1  0.02524500  0.58075000  0.20069700  1
  O  O97  1  0.99199800  0.52258800  0.00425900  1
