# generated using pymatgen
data_CaSeO3
_symmetry_space_group_name_H-M   'P 1'
_cell_length_a   5.38834087
_cell_length_b   6.42879274
_cell_length_c   8.34205588
_cell_angle_alpha   90.00000000
_cell_angle_beta   90.00000000
_cell_angle_gamma   90.00000000
_symmetry_Int_Tables_number   1
_chemical_formula_structural   CaSeO3
_chemical_formula_sum   'Ca4 Se4 O12'
_cell_volume   288.97320916
_cell_formula_units_Z   4
loop_
 _symmetry_equiv_pos_site_id
 _symmetry_equiv_pos_as_xyz
  1  'x, y, z'
loop_
 _atom_site_type_symbol
 _atom_site_label
 _atom_site_symmetry_multiplicity
 _atom_site_fract_x
 _atom_site_fract_y
 _atom_site_fract_z
 _atom_site_occupancy
  Ca  Ca0  1  -0.00000000  0.50000000  -0.00000000  1
  Ca  Ca1  1  -0.00000000  0.50000000  0.50000000  1
  Ca  Ca2  1  0.50000000  0.00000000  -0.00000000  1
  Ca  Ca3  1  0.50000000  0.00000000  0.50000000  1
  Se  Se4  1  0.01674183  0.02680080  0.75000000  1
  Se  Se5  1  0.48325817  0.52680080  0.75000000  1
  Se  Se6  1  0.51674183  0.47319920  0.25000000  1
  Se  Se7  1  0.98325817  0.97319920  0.25000000  1
  O  O8  1  0.20505667  0.42060296  0.25000000  1
  O  O9  1  0.12773124  0.17144446  0.59214091  1
  O  O10  1  0.12773124  0.17144446  0.90785909  1
  O  O11  1  0.37226876  0.67144446  0.59214091  1
  O  O12  1  0.37226876  0.67144446  0.90785909  1
  O  O13  1  0.29494333  0.92060296  0.25000000  1
  O  O14  1  0.70505667  0.07939704  0.75000000  1
  O  O15  1  0.62773124  0.32855554  0.09214091  1
  O  O16  1  0.62773124  0.32855554  0.40785909  1
  O  O17  1  0.87226876  0.82855554  0.09214091  1
  O  O18  1  0.87226876  0.82855554  0.40785909  1
  O  O19  1  0.79494333  0.57939704  0.75000000  1
