# generated using pymatgen
data_Ca5TaTi3Al(SiO5)5
_symmetry_space_group_name_H-M   'P 1'
_cell_length_a   5.43485389
_cell_length_b   7.04506974
_cell_length_c   24.91214263
_cell_angle_alpha   84.71605786
_cell_angle_beta   86.02385171
_cell_angle_gamma   76.18960535
_symmetry_Int_Tables_number   1
_chemical_formula_structural   Ca5TaTi3Al(SiO5)5
_chemical_formula_sum   'Ca10 Ta2 Ti6 Al2 Si10 O50'
_cell_volume   921.24096944
_cell_formula_units_Z   2
loop_
 _symmetry_equiv_pos_site_id
 _symmetry_equiv_pos_as_xyz
  1  'x, y, z'
loop_
 _atom_site_type_symbol
 _atom_site_label
 _atom_site_symmetry_multiplicity
 _atom_site_fract_x
 _atom_site_fract_y
 _atom_site_fract_z
 _atom_site_occupancy
  Ca  Ca0  1  0.84328070  0.88907699  0.66633039  1
  Ca  Ca1  1  0.24474877  0.69050623  0.46791607  1
  Ca  Ca2  1  0.63836761  0.51153639  0.26733241  1
  Ca  Ca3  1  0.03715245  0.31292562  0.06550958  1
  Ca  Ca4  1  0.75525123  0.30949377  0.53208393  1
  Ca  Ca5  1  0.43656129  0.11756019  0.86586350  1
  Ca  Ca6  1  0.15671930  0.11092301  0.33366961  1
  Ca  Ca7  1  0.56343871  0.88243981  0.13413650  1
  Ca  Ca8  1  0.96284755  0.68707438  0.93449042  1
  Ca  Ca9  1  0.36163239  0.48846361  0.73266759  1
  Ta  Ta10  1  0.29817118  0.10111977  0.59956611  1
  Ta  Ta11  1  0.70182882  0.89888023  0.40043389  1
  Ti  Ti12  1  0.10207582  0.69804593  0.20081062  1
  Ti  Ti13  1  0.09992497  0.20021814  0.19909414  1
  Ti  Ti14  1  0.50000000  0.50000000  0.00000000  1
  Ti  Ti15  1  0.50000000  -0.00000000  0.00000000  1
  Ti  Ti16  1  0.89792418  0.30195407  0.79918938  1
  Ti  Ti17  1  0.90007503  0.79978186  0.80090586  1
  Al  Al18  1  0.30147776  0.59912813  0.60057387  1
  Al  Al19  1  0.69852224  0.40087187  0.39942613  1
  Si  Si20  1  0.85034167  0.42070382  0.66319588  1
  Si  Si21  1  0.24860081  0.22341709  0.46200717  1
  Si  Si22  1  0.65354386  0.01568878  0.26274545  1
  Si  Si23  1  0.75139919  0.77658291  0.53799283  1
  Si  Si24  1  0.05443953  0.81239037  0.06407505  1
  Si  Si25  1  0.14965833  0.57929618  0.33680412  1
  Si  Si26  1  0.45423890  0.61313807  0.86390327  1
  Si  Si27  1  0.54576110  0.38686193  0.13609673  1
  Si  Si28  1  0.94556047  0.18760963  0.93592495  1
  Si  Si29  1  0.34645614  0.98431122  0.73725455  1
  O  O30  1  0.02306908  0.63361487  0.55215331  1
  O  O31  1  0.94101539  0.23901482  0.62285929  1
  O  O32  1  0.20342570  0.85727610  0.61299873  1
  O  O33  1  0.42126919  0.43531196  0.35139835  1
  O  O34  1  0.19677774  0.12327989  0.52300569  1
  O  O35  1  0.06998187  0.54392660  0.66173059  1
  O  O36  1  0.34052623  0.03936808  0.42297982  1
  O  O37  1  0.53159639  0.65474484  0.53845757  1
  O  O38  1  0.40339955  0.08085716  0.67644350  1
  O  O39  1  0.60083592  0.65767622  0.41307636  1
  O  O40  1  0.81796548  0.23759155  0.15001975  1
  O  O41  1  0.39916408  0.34232378  0.58692364  1
  O  O42  1  0.59660045  0.91914284  0.32355650  1
  O  O43  1  0.46840361  0.34525516  0.46154243  1
  O  O44  1  0.74142412  0.83878332  0.22259280  1
  O  O45  1  0.65947377  0.96063192  0.57702018  1
  O  O46  1  0.93001813  0.45607340  0.33826941  1
  O  O47  1  0.80322226  0.87672011  0.47699431  1
  O  O48  1  -0.00076084  0.46322375  0.21371268  1
  O  O49  1  0.21840121  0.04028553  0.95023268  1
  O  O50  1  0.57873081  0.56468804  0.64860165  1
  O  O51  1  0.79657430  0.14272390  0.38700127  1
  O  O52  1  0.00280055  0.71406076  0.12441761  1
  O  O53  1  0.86640674  0.14492125  0.26295634  1
  O  O54  1  0.14184236  0.63811237  0.02260166  1
  O  O55  1  0.05898461  0.76098518  0.37714071  1
  O  O56  1  0.33410384  0.25544240  0.13665349  1
  O  O57  1  0.19866890  0.68022608  0.27623485  1
  O  O58  1  0.40238326  0.26352975  0.01418672  1
  O  O59  1  0.61758942  0.83526045  0.75110394  1
  O  O60  1  0.97693092  0.36638513  0.44784669  1
  O  O61  1  0.19964400  0.93558083  0.18646233  1
  O  O62  1  0.40075481  0.51334491  0.92408599  1
  O  O63  1  0.26527730  0.94473541  0.06289447  1
  O  O64  1  0.54099186  0.43981294  0.82224149  1
  O  O65  1  0.45900814  0.56018706  0.17775851  1
  O  O66  1  0.73472270  0.05526459  0.93710553  1
  O  O67  1  0.59924519  0.48665509  0.07591401  1
  O  O68  1  0.80035600  0.06441917  0.81353767  1
  O  O69  1  0.38241058  0.16473955  0.24889606  1
  O  O70  1  0.59761674  0.73647025  0.98581328  1
  O  O71  1  0.80133110  0.31977392  0.72376515  1
  O  O72  1  0.66589616  0.74455760  0.86334651  1
  O  O73  1  0.85815764  0.36188763  0.97739834  1
  O  O74  1  0.13359326  0.85507875  0.73704366  1
  O  O75  1  0.99719945  0.28593924  0.87558239  1
  O  O76  1  0.78159879  0.95971447  0.04976732  1
  O  O77  1  0.00076084  0.53677625  0.78628732  1
  O  O78  1  0.25857588  0.16121668  0.77740720  1
  O  O79  1  0.18203452  0.76240845  0.84998025  1
