# generated using pymatgen
data_Li11Fe(WO4)7
_symmetry_space_group_name_H-M   'P 1'
_cell_length_a   8.41692877
_cell_length_b   8.41691059
_cell_length_c   8.16743426
_cell_angle_alpha   89.93856949
_cell_angle_beta   89.93868902
_cell_angle_gamma   89.90656910
_symmetry_Int_Tables_number   1
_chemical_formula_structural   Li11Fe(WO4)7
_chemical_formula_sum   'Li11 Fe1 W7 O28'
_cell_volume   578.61666513
_cell_formula_units_Z   1
loop_
 _symmetry_equiv_pos_site_id
 _symmetry_equiv_pos_as_xyz
  1  'x, y, z'
loop_
 _atom_site_type_symbol
 _atom_site_label
 _atom_site_symmetry_multiplicity
 _atom_site_fract_x
 _atom_site_fract_y
 _atom_site_fract_z
 _atom_site_occupancy
  Li  Li0  1  0.34324673  0.64542752  0.89650354  1
  Li  Li1  1  0.64542628  0.34324329  0.89650649  1
  Li  Li2  1  0.08904010  0.64967828  0.64511600  1
  Li  Li3  1  0.34810504  0.91363998  0.64236989  1
  Li  Li4  1  0.64967829  0.08903702  0.64511504  1
  Li  Li5  1  0.91364048  0.34810462  0.64236962  1
  Li  Li6  1  0.09159224  0.34842006  0.35859575  1
  Li  Li7  1  0.34842036  0.09159215  0.35859534  1
  Li  Li8  1  0.65001775  0.90801581  0.36060224  1
  Li  Li9  1  0.90801675  0.65001812  0.36060290  1
  Li  Li10  1  0.35321194  0.35320913  0.09614531  1
  Fe  Fe11  1  0.63354893  0.63354643  0.10268881  1
  W  W12  1  0.99701161  0.49844102  0.00084967  1
  W  W13  1  0.49844095  0.99701058  0.00084900  1
  W  W14  1  0.35507884  0.35508227  0.64101961  1
  W  W15  1  0.64654334  0.64654366  0.64095674  1
  W  W16  1  0.99926814  0.99926703  0.49909870  1
  W  W17  1  0.35272647  0.64686194  0.36365180  1
  W  W18  1  0.64686149  0.35272717  0.36365585  1
  O  O19  1  0.38663125  0.38663061  0.85553208  1
  O  O20  1  0.61857580  0.61857812  0.86421622  1
  O  O21  1  0.11818256  0.62083448  0.87639417  1
  O  O22  1  0.62083691  0.11818162  0.87639296  1
  O  O23  1  0.37558538  0.87765299  0.87558237  1
  O  O24  1  0.87765243  0.37558431  0.87558185  1
  O  O25  1  0.12264284  0.87540262  0.62302228  1
  O  O26  1  0.87540181  0.12264318  0.62302255  1
  O  O27  1  0.39401192  0.61179676  0.60813888  1
  O  O28  1  0.61179680  0.39401316  0.60813986  1
  O  O29  1  0.14654853  0.38480901  0.61404489  1
  O  O30  1  0.38480761  0.14655261  0.61404524  1
  O  O31  1  0.61990476  0.85462552  0.61859230  1
  O  O32  1  0.85462459  0.61990606  0.61859380  1
  O  O33  1  0.14411674  0.62161009  0.37669612  1
  O  O34  1  0.62161046  0.14411605  0.37669774  1
  O  O35  1  0.38289679  0.85542183  0.38503846  1
  O  O36  1  0.85542101  0.38289703  0.38504014  1
  O  O37  1  0.39568279  0.39568282  0.38840892  1
  O  O38  1  0.61579228  0.61579318  0.38506045  1
  O  O39  1  0.12284089  0.12284115  0.37558153  1
  O  O40  1  0.87618437  0.87618468  0.37454898  1
  O  O41  1  0.12363687  0.38191458  0.12578956  1
  O  O42  1  0.38191474  0.12363744  0.12579041  1
  O  O43  1  0.62202086  0.86334723  0.12451729  1
  O  O44  1  0.86334616  0.62202049  0.12451806  1
  O  O45  1  0.39696483  0.62048927  0.14285979  1
  O  O46  1  0.62048928  0.39696402  0.14286379  1
