# generated using pymatgen
data_Gd3TaO7
_symmetry_space_group_name_H-M   'P 1'
_cell_length_a   6.52984710
_cell_length_b   6.52984770
_cell_length_c   7.53225207
_cell_angle_alpha   90.00000000
_cell_angle_beta   90.00000000
_cell_angle_gamma   109.08456965
_symmetry_Int_Tables_number   1
_chemical_formula_structural   Gd3TaO7
_chemical_formula_sum   'Gd6 Ta2 O14'
_cell_volume   303.51469508
_cell_formula_units_Z   2
loop_
 _symmetry_equiv_pos_site_id
 _symmetry_equiv_pos_as_xyz
  1  'x, y, z'
loop_
 _atom_site_type_symbol
 _atom_site_label
 _atom_site_symmetry_multiplicity
 _atom_site_fract_x
 _atom_site_fract_y
 _atom_site_fract_z
 _atom_site_occupancy
  Gd  Gd0  1  0.46549502  0.00088751  0.25745631  1
  Gd  Gd1  1  0.99911249  0.53450498  0.24254369  1
  Gd  Gd2  1  0.47034379  0.47034379  -0.00000000  1
  Gd  Gd3  1  0.52965621  0.52965621  0.50000000  1
  Gd  Gd4  1  0.53450498  0.99911249  0.75745631  1
  Gd  Gd5  1  0.00088751  0.46549502  0.74254369  1
  Ta  Ta6  1  0.00167775  0.00167775  0.50000000  1
  Ta  Ta7  1  0.99832225  0.99832225  -0.00000000  1
  O  O8  1  0.93692406  0.06307594  0.75000000  1
  O  O9  1  0.63820962  0.36179038  0.75000000  1
  O  O10  1  0.30735944  0.05295107  0.54016038  1
  O  O11  1  0.94704893  0.69264056  0.95983962  1
  O  O12  1  0.62889178  0.37110822  0.25000000  1
  O  O13  1  0.91939144  0.67552064  0.52453060  1
  O  O14  1  0.32447936  0.08060856  0.97546940  1
  O  O15  1  0.08060856  0.32447936  0.02453060  1
  O  O16  1  0.67552064  0.91939144  0.47546940  1
  O  O17  1  0.37110822  0.62889178  0.75000000  1
  O  O18  1  0.69264056  0.94704893  0.04016038  1
  O  O19  1  0.05295107  0.30735944  0.45983962  1
  O  O20  1  0.36179038  0.63820962  0.25000000  1
  O  O21  1  0.06307594  0.93692406  0.25000000  1
