# generated using pymatgen
data_Ca2Cu2O5
_symmetry_space_group_name_H-M   'P 1'
_cell_length_a   3.52256546
_cell_length_b   10.39859129
_cell_length_c   12.68787037
_cell_angle_alpha   90.00000000
_cell_angle_beta   90.00000000
_cell_angle_gamma   90.00000000
_symmetry_Int_Tables_number   1
_chemical_formula_structural   Ca2Cu2O5
_chemical_formula_sum   'Ca8 Cu8 O20'
_cell_volume   464.75312015
_cell_formula_units_Z   4
loop_
 _symmetry_equiv_pos_site_id
 _symmetry_equiv_pos_as_xyz
  1  'x, y, z'
loop_
 _atom_site_type_symbol
 _atom_site_label
 _atom_site_symmetry_multiplicity
 _atom_site_fract_x
 _atom_site_fract_y
 _atom_site_fract_z
 _atom_site_occupancy
  Ca  Ca0  1  0.17649938  0.04579328  0.87077456  1
  Ca  Ca1  1  0.17467709  0.20448738  0.53712529  1
  Ca  Ca2  1  0.67467709  0.29551262  0.03712529  1
  Ca  Ca3  1  0.67649938  0.45420672  0.37077456  1
  Ca  Ca4  1  0.32350062  0.54579328  0.87077456  1
  Ca  Ca5  1  0.32532291  0.70448738  0.53712529  1
  Ca  Ca6  1  0.82532291  0.79551262  0.03712529  1
  Ca  Ca7  1  0.82350062  0.95420672  0.37077456  1
  Cu  Cu8  1  0.35851760  0.01257136  0.15431810  1
  Cu  Cu9  1  0.13781501  0.23770809  0.25024704  1
  Cu  Cu10  1  0.63781501  0.26229191  0.75024704  1
  Cu  Cu11  1  0.85851760  0.48742864  0.65431810  1
  Cu  Cu12  1  0.14148240  0.51257136  0.15431810  1
  Cu  Cu13  1  0.36218499  0.73770809  0.25024704  1
  Cu  Cu14  1  0.86218499  0.76229191  0.75024704  1
  Cu  Cu15  1  0.64148240  0.98742864  0.65431810  1
  O  O16  1  0.33608552  0.08203779  0.28875373  1
  O  O17  1  0.67410269  0.05784249  0.52362979  1
  O  O18  1  0.36301592  0.12405052  0.70307133  1
  O  O19  1  0.15705613  0.16771520  0.11549971  1
  O  O20  1  0.67335419  0.19218022  0.88058144  1
  O  O21  1  0.17335419  0.30781978  0.38058144  1
  O  O22  1  0.65705613  0.33228480  0.61549971  1
  O  O23  1  0.86301592  0.37594948  0.20307133  1
  O  O24  1  0.17410269  0.44215751  0.02362979  1
  O  O25  1  0.83608552  0.41796221  0.78875373  1
  O  O26  1  0.16391448  0.58203779  0.28875373  1
  O  O27  1  0.82589731  0.55784249  0.52362979  1
  O  O28  1  0.13698408  0.62405052  0.70307133  1
  O  O29  1  0.34294387  0.66771520  0.11549971  1
  O  O30  1  0.82664581  0.69218022  0.88058144  1
  O  O31  1  0.32664581  0.80781978  0.38058144  1
  O  O32  1  0.84294387  0.83228480  0.61549971  1
  O  O33  1  0.63698408  0.87594948  0.20307133  1
  O  O34  1  0.32589731  0.94215751  0.02362979  1
  O  O35  1  0.66391448  0.91796221  0.78875373  1
