# generated using pymatgen
data_H10SeO8
_symmetry_space_group_name_H-M   'P 1'
_cell_length_a   5.98311566
_cell_length_b   9.24521244
_cell_length_c   12.66613597
_cell_angle_alpha   90.00000000
_cell_angle_beta   90.00000000
_cell_angle_gamma   90.00000000
_symmetry_Int_Tables_number   1
_chemical_formula_structural   H10SeO8
_chemical_formula_sum   'H40 Se4 O32'
_cell_volume   700.62953193
_cell_formula_units_Z   4
loop_
 _symmetry_equiv_pos_site_id
 _symmetry_equiv_pos_as_xyz
  1  'x, y, z'
loop_
 _atom_site_type_symbol
 _atom_site_label
 _atom_site_symmetry_multiplicity
 _atom_site_fract_x
 _atom_site_fract_y
 _atom_site_fract_z
 _atom_site_occupancy
  H  H0  1  0.01069011  0.19498100  0.10469864  1
  H  H1  1  0.01069011  0.19498100  0.39530136  1
  H  H2  1  0.05295018  0.35971204  0.14525378  1
  H  H3  1  0.05295018  0.35971204  0.35474622  1
  H  H4  1  0.05075019  0.33041799  0.00957033  1
  H  H5  1  0.05075019  0.33041799  0.49042967  1
  H  H6  1  0.10972062  0.29744192  0.64350065  1
  H  H7  1  0.10972062  0.29744192  0.85649935  1
  H  H8  1  0.25628464  0.93215009  0.10002727  1
  H  H9  1  0.25628464  0.93215009  0.39997273  1
  H  H10  1  0.24371536  0.43215009  0.60002727  1
  H  H11  1  0.24371536  0.43215009  0.89997273  1
  H  H12  1  0.39027938  0.79744192  0.14350065  1
  H  H13  1  0.39027938  0.79744192  0.35649935  1
  H  H14  1  0.44924981  0.83041799  0.50957033  1
  H  H15  1  0.44924981  0.83041799  0.99042967  1
  H  H16  1  0.44704982  0.85971204  0.64525378  1
  H  H17  1  0.44704982  0.85971204  0.85474622  1
  H  H18  1  0.48930989  0.69498100  0.60469864  1
  H  H19  1  0.48930989  0.69498100  0.89530136  1
  H  H20  1  0.51069011  0.30501900  0.10469864  1
  H  H21  1  0.51069011  0.30501900  0.39530136  1
  H  H22  1  0.55295018  0.14028796  0.14525378  1
  H  H23  1  0.55295018  0.14028796  0.35474622  1
  H  H24  1  0.55075019  0.16958201  0.00957033  1
  H  H25  1  0.55075019  0.16958201  0.49042967  1
  H  H26  1  0.60972062  0.20255808  0.64350065  1
  H  H27  1  0.60972062  0.20255808  0.85649935  1
  H  H28  1  0.75628464  0.56784991  0.10002727  1
  H  H29  1  0.75628464  0.56784991  0.39997273  1
  H  H30  1  0.74371536  0.06784991  0.60002727  1
  H  H31  1  0.74371536  0.06784991  0.89997273  1
  H  H32  1  0.89027938  0.70255808  0.14350065  1
  H  H33  1  0.89027938  0.70255808  0.35649935  1
  H  H34  1  0.94924981  0.66958201  0.50957033  1
  H  H35  1  0.94924981  0.66958201  0.99042967  1
  H  H36  1  0.94704982  0.64028796  0.64525378  1
  H  H37  1  0.94704982  0.64028796  0.85474622  1
  H  H38  1  0.98930989  0.80501900  0.60469864  1
  H  H39  1  0.98930989  0.80501900  0.89530136  1
  Se  Se40  1  0.10908842  0.01422896  0.75000000  1
  Se  Se41  1  0.39091158  0.51422896  0.25000000  1
  Se  Se42  1  0.60908842  0.48577104  0.75000000  1
  Se  Se43  1  0.89091158  0.98577104  0.25000000  1
  O  O44  1  0.01492874  0.69989117  0.58670058  1
  O  O45  1  0.01492874  0.69989117  0.91329942  1
  O  O46  1  0.02767983  0.03238160  0.14130219  1
  O  O47  1  0.02767983  0.03238160  0.35869781  1
  O  O48  1  0.14604545  0.19002643  0.75000000  1
  O  O49  1  0.11011147  0.37218138  0.58777399  1
  O  O50  1  0.11011147  0.37218138  0.91222601  1
  O  O51  1  0.15090218  0.42400114  0.25000000  1
  O  O52  1  0.34909782  0.92400114  0.75000000  1
  O  O53  1  0.38988853  0.87218138  0.08777399  1
  O  O54  1  0.38988853  0.87218138  0.41222601  1
  O  O55  1  0.35395455  0.69002643  0.25000000  1
  O  O56  1  0.47232017  0.53238160  0.64130219  1
  O  O57  1  0.47232017  0.53238160  0.85869781  1
  O  O58  1  0.48507126  0.19989117  0.08670058  1
  O  O59  1  0.48507126  0.19989117  0.41329942  1
  O  O60  1  0.51492874  0.80010883  0.58670058  1
  O  O61  1  0.51492874  0.80010883  0.91329942  1
  O  O62  1  0.52767983  0.46761840  0.14130219  1
  O  O63  1  0.52767983  0.46761840  0.35869781  1
  O  O64  1  0.64604545  0.30997357  0.75000000  1
  O  O65  1  0.61011147  0.12781862  0.58777399  1
  O  O66  1  0.61011147  0.12781862  0.91222601  1
  O  O67  1  0.65090218  0.07599886  0.25000000  1
  O  O68  1  0.84909782  0.57599886  0.75000000  1
  O  O69  1  0.88988853  0.62781862  0.08777399  1
  O  O70  1  0.88988853  0.62781862  0.41222601  1
  O  O71  1  0.85395455  0.80997357  0.25000000  1
  O  O72  1  0.97232017  0.96761840  0.64130219  1
  O  O73  1  0.97232017  0.96761840  0.85869781  1
  O  O74  1  -0.01492874  0.30010883  0.08670058  1
  O  O75  1  -0.01492874  0.30010883  0.41329942  1
