# generated using pymatgen
data_K4TiO4
_symmetry_space_group_name_H-M   'P 1'
_cell_length_a   6.60693316
_cell_length_b   10.49563710
_cell_length_c   10.65548830
_cell_angle_alpha   68.49005527
_cell_angle_beta   90.00000000
_cell_angle_gamma   90.00000000
_symmetry_Int_Tables_number   1
_chemical_formula_structural   K4TiO4
_chemical_formula_sum   'K16 Ti4 O16'
_cell_volume   687.43284334
_cell_formula_units_Z   4
loop_
 _symmetry_equiv_pos_site_id
 _symmetry_equiv_pos_as_xyz
  1  'x, y, z'
loop_
 _atom_site_type_symbol
 _atom_site_label
 _atom_site_symmetry_multiplicity
 _atom_site_fract_x
 _atom_site_fract_y
 _atom_site_fract_z
 _atom_site_occupancy
  K  K0  1  0.58413805  0.94054241  0.69638379  1
  K  K1  1  0.10304183  0.83341547  0.58380326  1
  K  K2  1  0.91586195  0.94054241  0.19638379  1
  K  K3  1  0.32522264  0.63181514  0.88946217  1
  K  K4  1  0.79043216  0.56552770  0.79950638  1
  K  K5  1  0.39695817  0.83341547  0.08380326  1
  K  K6  1  0.17477736  0.63181514  0.38946217  1
  K  K7  1  0.29043216  0.43447230  0.70049362  1
  K  K8  1  0.70956784  0.56552770  0.29950638  1
  K  K9  1  0.82522264  0.36818486  0.61053783  1
  K  K10  1  0.60304183  0.16658453  0.91619674  1
  K  K11  1  0.20956784  0.43447230  0.20049362  1
  K  K12  1  0.67477736  0.36818486  0.11053783  1
  K  K13  1  0.08413805  0.05945759  0.80361621  1
  K  K14  1  0.89695817  0.16658453  0.41619674  1
  K  K15  1  0.41586195  0.05945759  0.30361621  1
  Ti  Ti16  1  0.86477163  0.75674758  0.99212865  1
  Ti  Ti17  1  0.63522837  0.75674758  0.49212865  1
  Ti  Ti18  1  0.36477163  0.24325242  0.50787135  1
  Ti  Ti19  1  0.13522837  0.24325242  0.00787135  1
  O  O20  1  0.76154606  0.92438327  0.97042979  1
  O  O21  1  -0.00561349  0.77367038  0.83503340  1
  O  O22  1  0.73845394  0.92438327  0.47042979  1
  O  O23  1  0.46384862  0.69381389  0.63954297  1
  O  O24  1  0.50561349  0.77367038  0.33503340  1
  O  O25  1  0.84829035  0.63633413  0.52345775  1
  O  O26  1  0.03615138  0.69381389  0.13954297  1
  O  O27  1  0.34829035  0.36366587  0.97654225  1
  O  O28  1  0.65170965  0.63633413  0.02345775  1
  O  O29  1  0.96384862  0.30618611  0.86045703  1
  O  O30  1  0.15170965  0.36366587  0.47654225  1
  O  O31  1  0.49438651  0.22632962  0.66496660  1
  O  O32  1  0.53615138  0.30618611  0.36045703  1
  O  O33  1  0.26154606  0.07561673  0.52957021  1
  O  O34  1  0.00561349  0.22632962  0.16496660  1
  O  O35  1  0.23845394  0.07561673  0.02957021  1
