# generated using pymatgen
data_NaAuF4
_symmetry_space_group_name_H-M   'P 1'
_cell_length_a   5.57927734
_cell_length_b   5.57927689
_cell_length_c   6.53563382
_cell_angle_alpha   115.26688160
_cell_angle_beta   115.26687772
_cell_angle_gamma   89.99999185
_symmetry_Int_Tables_number   1
_chemical_formula_structural   NaAuF4
_chemical_formula_sum   'Na2 Au2 F8'
_cell_volume   162.19727489
_cell_formula_units_Z   2
loop_
 _symmetry_equiv_pos_site_id
 _symmetry_equiv_pos_as_xyz
  1  'x, y, z'
loop_
 _atom_site_type_symbol
 _atom_site_label
 _atom_site_symmetry_multiplicity
 _atom_site_fract_x
 _atom_site_fract_y
 _atom_site_fract_z
 _atom_site_occupancy
  Na  Na0  1  0.25000000  0.25000000  0.50000000  1
  Na  Na1  1  0.75000000  0.75000000  0.50000000  1
  Au  Au2  1  0.00000000  0.50000000  -0.00000000  1
  Au  Au3  1  0.50000000  -0.00000000  -0.00000000  1
  F  F4  1  0.95647569  0.45647569  0.26294175  1
  F  F5  1  0.69353395  0.19353395  0.73705825  1
  F  F6  1  0.04352431  0.54352431  0.73705825  1
  F  F7  1  0.19353395  0.04352431  0.73705825  1
  F  F8  1  0.30646605  0.80646605  0.26294175  1
  F  F9  1  0.45647569  0.30646605  0.26294175  1
  F  F10  1  0.80646605  0.95647569  0.26294175  1
  F  F11  1  0.54352431  0.69353395  0.73705825  1
