# generated using pymatgen
data_Hf2N2O
_symmetry_space_group_name_H-M   'P 1'
_cell_length_a   8.64285066
_cell_length_b   8.67686120
_cell_length_c   8.67986227
_cell_angle_alpha   109.59412350
_cell_angle_beta   109.44580205
_cell_angle_gamma   109.22328872
_symmetry_Int_Tables_number   1
_chemical_formula_structural   Hf2N2O
_chemical_formula_sum   'Hf16 N16 O8'
_cell_volume   502.00830077
_cell_formula_units_Z   8
loop_
 _symmetry_equiv_pos_site_id
 _symmetry_equiv_pos_as_xyz
  1  'x, y, z'
loop_
 _atom_site_type_symbol
 _atom_site_label
 _atom_site_symmetry_multiplicity
 _atom_site_fract_x
 _atom_site_fract_y
 _atom_site_fract_z
 _atom_site_occupancy
  Hf  Hf0  1  0.46164100  0.21581289  0.25716104  1
  Hf  Hf1  1  0.00606846  0.00903785  0.99620678  1
  Hf  Hf2  1  0.74676064  0.46462022  0.71307149  1
  Hf  Hf3  1  0.50761379  0.51648447  0.00738267  1
  Hf  Hf4  1  0.98894129  0.49772562  0.49743570  1
  Hf  Hf5  1  0.24234883  0.02519172  0.78321811  1
  Hf  Hf6  1  0.21467645  0.25012727  0.46193558  1
  Hf  Hf7  1  0.71687146  0.25500464  0.96956093  1
  Hf  Hf8  1  0.03800111  0.28567854  0.74954038  1
  Hf  Hf9  1  0.96175045  0.70709167  0.24924601  1
  Hf  Hf10  1  0.27744637  0.74021682  0.02126231  1
  Hf  Hf11  1  0.78383396  0.75050948  0.52769546  1
  Hf  Hf12  1  0.75300151  0.96843368  0.21569341  1
  Hf  Hf13  1  0.49703018  0.99552660  0.50695374  1
  Hf  Hf14  1  0.25191842  0.52971836  0.28049350  1
  Hf  Hf15  1  0.53869724  0.79729876  0.75678772  1
  N  N16  1  0.46309507  0.23219253  0.51088920  1
  N  N17  1  0.95752656  0.22442589  0.46586771  1
  N  N18  1  0.73641792  0.50834532  0.96239571  1
  N  N19  1  0.02744542  0.54197166  0.77160994  1
  N  N20  1  0.23171912  0.95746778  0.99076853  1
  N  N21  1  0.98589571  0.03609675  0.76204335  1
  N  N22  1  0.72274667  0.46476731  0.44882992  1
  N  N23  1  0.48260073  0.72458826  0.94892012  1
  N  N24  1  0.97126224  0.45666718  0.22825091  1
  N  N25  1  0.77517176  0.04413157  0.01186528  1
  N  N26  1  0.26237245  0.48816334  0.03545616  1
  N  N27  1  0.04934496  0.77245210  0.53530295  1
  N  N28  1  0.45840059  0.99527988  0.72980695  1
  N  N29  1  0.23602893  0.27088436  0.23100513  1
  N  N30  1  0.73055509  0.74159541  0.27095268  1
  N  N31  1  0.53054512  0.75992325  0.48944092  1
  O  O32  1  0.27491572  0.26232424  0.72993142  1
  O  O33  1  0.76366340  0.72699608  0.77446857  1
  O  O34  1  0.54712711  0.00896071  0.27541864  1
  O  O35  1  0.77125990  0.22382644  0.73449390  1
  O  O36  1  0.27721507  0.53063370  0.55081379  1
  O  O37  1  0.01542483  0.96318980  0.23825220  1
  O  O38  1  0.51273775  0.27459016  0.04634217  1
  O  O39  1  0.22992568  0.78204969  0.26323204  1
