# generated using pymatgen
data_GdMn2O5
_symmetry_space_group_name_H-M   'P 1'
_cell_length_a   5.69780780
_cell_length_b   7.33027000
_cell_length_c   8.54541434
_cell_angle_alpha   90.00000000
_cell_angle_beta   90.00000000
_cell_angle_gamma   90.00000000
_symmetry_Int_Tables_number   1
_chemical_formula_structural   GdMn2O5
_chemical_formula_sum   'Gd4 Mn8 O20'
_cell_volume   356.91178810
_cell_formula_units_Z   4
loop_
 _symmetry_equiv_pos_site_id
 _symmetry_equiv_pos_as_xyz
  1  'x, y, z'
loop_
 _atom_site_type_symbol
 _atom_site_label
 _atom_site_symmetry_multiplicity
 _atom_site_fract_x
 _atom_site_fract_y
 _atom_site_fract_z
 _atom_site_occupancy
  Gd  Gd0  1  0.00000000  0.86132482  0.82801077  1
  Gd  Gd1  1  0.00000000  0.13867518  0.17198923  1
  Gd  Gd2  1  0.00000000  0.36132482  0.67198923  1
  Gd  Gd3  1  0.00000000  0.63867518  0.32801077  1
  Mn  Mn4  1  0.74455696  0.00000000  0.50000000  1
  Mn  Mn5  1  0.50000000  0.58879636  0.64992080  1
  Mn  Mn6  1  0.50000000  0.41120364  0.35007920  1
  Mn  Mn7  1  0.50000000  0.91120364  0.14992080  1
  Mn  Mn8  1  0.50000000  0.08879636  0.85007920  1
  Mn  Mn9  1  0.25544304  0.50000000  -0.00000000  1
  Mn  Mn10  1  0.74455696  0.50000000  -0.00000000  1
  Mn  Mn11  1  0.25544304  0.00000000  0.50000000  1
  O  O12  1  0.00000000  0.33869073  0.94587009  1
  O  O13  1  0.72554712  0.00000000  -0.00000000  1
  O  O14  1  0.27445288  0.00000000  -0.00000000  1
  O  O15  1  0.50000000  0.15343736  0.43542022  1
  O  O16  1  0.00000000  0.16130927  0.44587009  1
  O  O17  1  0.72554712  0.50000000  0.50000000  1
  O  O18  1  0.00000000  0.83869073  0.55412991  1
  O  O19  1  0.75312929  0.60279297  0.79380831  1
  O  O20  1  0.24687071  0.10279297  0.70619169  1
  O  O21  1  0.50000000  0.65343736  0.06457978  1
  O  O22  1  0.50000000  0.34656264  0.93542022  1
  O  O23  1  0.00000000  0.66130927  0.05412991  1
  O  O24  1  0.75312929  0.89720703  0.29380831  1
  O  O25  1  0.75312929  0.39720703  0.20619169  1
  O  O26  1  0.75312929  0.10279297  0.70619169  1
  O  O27  1  0.24687071  0.60279297  0.79380831  1
  O  O28  1  0.27445288  0.50000000  0.50000000  1
  O  O29  1  0.24687071  0.89720703  0.29380831  1
  O  O30  1  0.24687071  0.39720703  0.20619169  1
  O  O31  1  0.50000000  0.84656264  0.56457978  1
