# generated using pymatgen
data_Ba3SiO5
_symmetry_space_group_name_H-M   'P 1'
_cell_length_a   7.67921352
_cell_length_b   7.67921469
_cell_length_c   7.67921115
_cell_angle_alpha   122.90062372
_cell_angle_beta   122.90062408
_cell_angle_gamma   85.04537220
_symmetry_Int_Tables_number   1
_chemical_formula_structural   Ba3SiO5
_chemical_formula_sum   'Ba6 Si2 O10'
_cell_volume   304.92645375
_cell_formula_units_Z   2
loop_
 _symmetry_equiv_pos_site_id
 _symmetry_equiv_pos_as_xyz
  1  'x, y, z'
loop_
 _atom_site_type_symbol
 _atom_site_label
 _atom_site_symmetry_multiplicity
 _atom_site_fract_x
 _atom_site_fract_y
 _atom_site_fract_z
 _atom_site_occupancy
  Ba  Ba0  1  0.81823627  0.31823692  0.13647361  1
  Ba  Ba1  1  0.31823744  0.18176302  0.50000056  1
  Ba  Ba2  1  0.68176243  0.81823691  0.49999941  1
  Ba  Ba3  1  0.18176369  0.68176319  0.86352640  1
  Ba  Ba4  1  0.25000029  0.25000028  0.00000002  1
  Ba  Ba5  1  0.74999985  0.74999972  0.00000004  1
  Si  Si6  1  0.75000012  0.25000064  0.50000154  1
  Si  Si7  1  0.24999955  0.75000018  0.49999812  1
  O  O8  1  0.21048028  0.71048035  0.24679220  1
  O  O9  1  0.53631000  0.03631017  0.24678934  1
  O  O10  1  0.78951987  0.28951967  0.75320837  1
  O  O11  1  0.28952024  0.53631008  0.49999954  1
  O  O12  1  0.03631076  0.78952027  0.49999990  1
  O  O13  1  0.71047993  0.46368919  0.50000038  1
  O  O14  1  0.96368943  0.21047971  0.50000013  1
  O  O15  1  0.46368985  0.96368967  0.75321041  1
  O  O16  1  0.49999998  0.50000002  -0.00000001  1
  O  O17  1  0.00000002  0.00000001  0.00000003  1
