# generated using pymatgen
data_IrCl3
_symmetry_space_group_name_H-M   'P 1'
_cell_length_a   11.72941762
_cell_length_b   11.18347638
_cell_length_c   6.22368877
_cell_angle_alpha   79.14099634
_cell_angle_beta   69.45267176
_cell_angle_gamma   31.40633190
_symmetry_Int_Tables_number   1
_chemical_formula_structural   IrCl3
_chemical_formula_sum   'Ir4 Cl12'
_cell_volume   387.88688625
_cell_formula_units_Z   4
loop_
 _symmetry_equiv_pos_site_id
 _symmetry_equiv_pos_as_xyz
  1  'x, y, z'
loop_
 _atom_site_type_symbol
 _atom_site_label
 _atom_site_symmetry_multiplicity
 _atom_site_fract_x
 _atom_site_fract_y
 _atom_site_fract_z
 _atom_site_occupancy
  Ir  Ir0  1  0.95604300  0.95680300  0.79128600  1
  Ir  Ir1  1  0.03654700  0.04907900  0.20725900  1
  Ir  Ir2  1  0.20829600  0.21286500  0.03593400  1
  Ir  Ir3  1  0.79769800  0.78891200  0.95668900  1
  Cl  Cl4  1  0.65164400  0.09736200  0.10110700  1
  Cl  Cl5  1  0.45456000  0.97023500  0.25780000  1
  Cl  Cl6  1  0.53273900  0.04169500  0.75360700  1
  Cl  Cl7  1  0.95833800  0.46539000  0.81555700  1
  Cl  Cl8  1  0.75160100  0.17220200  0.53381400  1
  Cl  Cl9  1  0.09384500  0.65663400  0.64877100  1
  Cl  Cl10  1  0.34665100  0.90024400  0.91022200  1
  Cl  Cl11  1  0.90869600  0.33764000  0.34753800  1
  Cl  Cl12  1  0.26314200  0.81238900  0.46001100  1
  Cl  Cl13  1  0.03053600  0.53938100  0.18398100  1
  Cl  Cl14  1  0.18476300  0.74047800  0.04266500  1
  Cl  Cl15  1  0.81440200  0.26043700  0.95826700  1
