# generated using pymatgen
data_Na5FeO4
_symmetry_space_group_name_H-M   'P 1'
_cell_length_a   10.14708759
_cell_length_b   10.41070106
_cell_length_c   10.54135823
_cell_angle_alpha   90.00000000
_cell_angle_beta   90.00000000
_cell_angle_gamma   90.00000000
_symmetry_Int_Tables_number   1
_chemical_formula_structural   Na5FeO4
_chemical_formula_sum   'Na40 Fe8 O32'
_cell_volume   1113.57111598
_cell_formula_units_Z   8
loop_
 _symmetry_equiv_pos_site_id
 _symmetry_equiv_pos_as_xyz
  1  'x, y, z'
loop_
 _atom_site_type_symbol
 _atom_site_label
 _atom_site_symmetry_multiplicity
 _atom_site_fract_x
 _atom_site_fract_y
 _atom_site_fract_z
 _atom_site_occupancy
  Na  Na0  1  0.85538159  0.38214508  0.10018841  1
  Na  Na1  1  0.35538159  0.11785492  0.10018841  1
  Na  Na2  1  0.16729921  0.89370352  0.11428574  1
  Na  Na3  1  0.66729921  0.60629648  0.11428574  1
  Na  Na4  1  0.63860076  0.15222254  0.11580621  1
  Na  Na5  1  0.13860076  0.34777746  0.11580621  1
  Na  Na6  1  0.91495490  0.12096261  0.14467725  1
  Na  Na7  1  0.41495490  0.37903739  0.14467725  1
  Na  Na8  1  0.60191369  0.87906546  0.16275822  1
  Na  Na9  1  0.10191369  0.62093454  0.16275822  1
  Na  Na10  1  0.10191369  0.12093454  0.33724178  1
  Na  Na11  1  0.60191369  0.37906546  0.33724178  1
  Na  Na12  1  0.41495490  0.87903739  0.35532275  1
  Na  Na13  1  0.91495490  0.62096261  0.35532275  1
  Na  Na14  1  0.63860076  0.65222254  0.38419379  1
  Na  Na15  1  0.13860076  0.84777746  0.38419379  1
  Na  Na16  1  0.16729921  0.39370352  0.38571426  1
  Na  Na17  1  0.66729921  0.10629648  0.38571426  1
  Na  Na18  1  0.85538159  0.88214508  0.39981159  1
  Na  Na19  1  0.35538159  0.61785492  0.39981159  1
  Na  Na20  1  0.64461841  0.38214508  0.60018841  1
  Na  Na21  1  0.14461841  0.11785492  0.60018841  1
  Na  Na22  1  0.33270079  0.89370352  0.61428574  1
  Na  Na23  1  0.83270079  0.60629648  0.61428574  1
  Na  Na24  1  0.36139924  0.34777746  0.61580621  1
  Na  Na25  1  0.86139924  0.15222254  0.61580621  1
  Na  Na26  1  0.08504510  0.37903739  0.64467725  1
  Na  Na27  1  0.58504510  0.12096261  0.64467725  1
  Na  Na28  1  0.89808631  0.87906546  0.66275822  1
  Na  Na29  1  0.39808631  0.62093454  0.66275822  1
  Na  Na30  1  0.89808631  0.37906546  0.83724178  1
  Na  Na31  1  0.39808631  0.12093454  0.83724178  1
  Na  Na32  1  0.58504510  0.62096261  0.85532275  1
  Na  Na33  1  0.08504510  0.87903739  0.85532275  1
  Na  Na34  1  0.36139924  0.84777746  0.88419379  1
  Na  Na35  1  0.86139924  0.65222254  0.88419379  1
  Na  Na36  1  0.33270079  0.39370352  0.88571426  1
  Na  Na37  1  0.83270079  0.10629648  0.88571426  1
  Na  Na38  1  0.64461841  0.88214508  0.89981159  1
  Na  Na39  1  0.14461841  0.61785492  0.89981159  1
  Fe  Fe40  1  0.88607109  0.85231508  0.12933839  1
  Fe  Fe41  1  0.38607109  0.64768492  0.12933839  1
  Fe  Fe42  1  0.88607109  0.35231508  0.37066161  1
  Fe  Fe43  1  0.38607109  0.14768492  0.37066161  1
  Fe  Fe44  1  0.61392891  0.85231508  0.62933839  1
  Fe  Fe45  1  0.11392891  0.64768492  0.62933839  1
  Fe  Fe46  1  0.61392891  0.35231508  0.87066161  1
  Fe  Fe47  1  0.11392891  0.14768492  0.87066161  1
  O  O48  1  0.50008600  0.74201460  0.02002703  1
  O  O49  1  0.00008600  0.75798540  0.02002703  1
  O  O50  1  0.77216871  0.97543175  0.04987400  1
  O  O51  1  0.27216871  0.52456825  0.04987400  1
  O  O52  1  0.99681616  0.94773027  0.24328108  1
  O  O53  1  0.49681616  0.55226973  0.24328108  1
  O  O54  1  0.77702315  0.75286689  0.23839020  1
  O  O55  1  0.27702315  0.74713311  0.23839020  1
  O  O56  1  0.77702315  0.25286689  0.26160980  1
  O  O57  1  0.27702315  0.24713311  0.26160980  1
  O  O58  1  0.99681616  0.44773027  0.25671892  1
  O  O59  1  0.49681616  0.05226973  0.25671892  1
  O  O60  1  0.77216871  0.47543175  0.45012600  1
  O  O61  1  0.27216871  0.02456825  0.45012600  1
  O  O62  1  0.50008600  0.24201460  0.47997297  1
  O  O63  1  0.00008600  0.25798540  0.47997297  1
  O  O64  1  0.99991400  0.74201460  0.52002703  1
  O  O65  1  0.49991400  0.75798540  0.52002703  1
  O  O66  1  0.72783129  0.97543175  0.54987400  1
  O  O67  1  0.22783129  0.52456825  0.54987400  1
  O  O68  1  0.00318384  0.55226973  0.74328108  1
  O  O69  1  0.50318384  0.94773027  0.74328108  1
  O  O70  1  0.72297685  0.75286689  0.73839020  1
  O  O71  1  0.22297685  0.74713311  0.73839020  1
  O  O72  1  0.72297685  0.25286689  0.76160980  1
  O  O73  1  0.22297685  0.24713311  0.76160980  1
  O  O74  1  0.00318384  0.05226973  0.75671892  1
  O  O75  1  0.50318384  0.44773027  0.75671892  1
  O  O76  1  0.22783129  0.02456825  0.95012600  1
  O  O77  1  0.72783129  0.47543175  0.95012600  1
  O  O78  1  0.99991400  0.24201460  0.97997297  1
  O  O79  1  0.49991400  0.25798540  0.97997297  1
