# generated using pymatgen
data_Rb2NaZn2H5(C2O7)2
_symmetry_space_group_name_H-M   'P 1'
_cell_length_a   11.21091301
_cell_length_b   5.19775818
_cell_length_c   11.66692121
_cell_angle_alpha   65.52633661
_cell_angle_beta   90.00000000
_cell_angle_gamma   90.00000000
_symmetry_Int_Tables_number   1
_chemical_formula_structural   Rb2NaZn2H5(C2O7)2
_chemical_formula_sum   'Rb4 Na2 Zn4 H10 C8 O28'
_cell_volume   618.76700464
_cell_formula_units_Z   2
loop_
 _symmetry_equiv_pos_site_id
 _symmetry_equiv_pos_as_xyz
  1  'x, y, z'
loop_
 _atom_site_type_symbol
 _atom_site_label
 _atom_site_symmetry_multiplicity
 _atom_site_fract_x
 _atom_site_fract_y
 _atom_site_fract_z
 _atom_site_occupancy
  Rb  Rb0  1  0.83389561  0.04113441  0.92549231  1
  Rb  Rb1  1  0.33389561  0.95886559  0.57450769  1
  Rb  Rb2  1  0.66610439  0.04113441  0.42549231  1
  Rb  Rb3  1  0.16610439  0.95886559  0.07450769  1
  Na  Na4  1  0.50000000  0.00000000  -0.00000000  1
  Na  Na5  1  0.00000000  0.00000000  0.50000000  1
  Zn  Zn6  1  0.60377261  0.66853695  0.79515554  1
  Zn  Zn7  1  0.10377261  0.33146305  0.70484446  1
  Zn  Zn8  1  0.89622739  0.66853695  0.29515554  1
  Zn  Zn9  1  0.39622739  0.33146305  0.20484446  1
  H  H10  1  0.00000000  0.50000000  -0.00000000  1
  H  H11  1  0.30204638  0.05778018  0.81946829  1
  H  H12  1  0.33040216  0.37920754  0.77602284  1
  H  H13  1  0.83040216  0.62079246  0.72397716  1
  H  H14  1  0.80204638  0.94221982  0.68053171  1
  H  H15  1  0.50000000  0.50000000  0.50000000  1
  H  H16  1  0.19795362  0.05778018  0.31946829  1
  H  H17  1  0.16959784  0.37920754  0.27602284  1
  H  H18  1  0.66959784  0.62079246  0.22397716  1
  H  H19  1  0.69795362  0.94221982  0.18053171  1
  C  C20  1  0.37648260  0.57065570  0.93467509  1
  C  C21  1  0.07167696  0.71310314  0.81774160  1
  C  C22  1  0.57167696  0.28689686  0.68225840  1
  C  C23  1  0.87648260  0.42934430  0.56532491  1
  C  C24  1  0.12351740  0.57065570  0.43467509  1
  C  C25  1  0.42832304  0.71310314  0.31774160  1
  C  C26  1  0.92832304  0.28689686  0.18225840  1
  C  C27  1  0.62351740  0.42934430  0.06532491  1
  O  O28  1  0.61617500  0.66770279  0.96583659  1
  O  O29  1  0.33807599  0.79192741  0.94409112  1
  O  O30  1  0.04037399  0.47407097  0.90934036  1
  O  O31  1  0.41067340  0.57564623  0.82759440  1
  O  O32  1  0.06250047  0.94281900  0.83294695  1
  O  O33  1  0.61088196  0.29171310  0.78475582  1
  O  O34  1  0.78400033  0.75114187  0.74963906  1
  O  O35  1  0.28400033  0.24885813  0.75036094  1
  O  O36  1  0.11088196  0.70828690  0.71524418  1
  O  O37  1  0.91067340  0.42435377  0.67240560  1
  O  O38  1  0.56250047  0.05718100  0.66705305  1
  O  O39  1  0.54037399  0.52592903  0.59065964  1
  O  O40  1  0.83807599  0.20807259  0.55590888  1
  O  O41  1  0.11617500  0.33229721  0.53416341  1
  O  O42  1  0.88382500  0.66770279  0.46583659  1
  O  O43  1  0.16192401  0.79192741  0.44409112  1
  O  O44  1  0.45962601  0.47407097  0.40934036  1
  O  O45  1  0.43749953  0.94281900  0.33294695  1
  O  O46  1  0.08932660  0.57564623  0.32759440  1
  O  O47  1  0.88911804  0.29171310  0.28475582  1
  O  O48  1  0.71599967  0.75114187  0.24963906  1
  O  O49  1  0.21599967  0.24885813  0.25036094  1
  O  O50  1  0.38911804  0.70828690  0.21524418  1
  O  O51  1  0.93749953  0.05718100  0.16705305  1
  O  O52  1  0.58932660  0.42435377  0.17240560  1
  O  O53  1  0.95962601  0.52592903  0.09065964  1
  O  O54  1  0.66192401  0.20807259  0.05590888  1
  O  O55  1  0.38382500  0.33229721  0.03416341  1
