# generated using pymatgen
data_Mg2(TeO3)3
_symmetry_space_group_name_H-M   'P 1'
_cell_length_a   7.16377493
_cell_length_b   9.15462134
_cell_length_c   12.57029809
_cell_angle_alpha   56.99900186
_cell_angle_beta   90.00000000
_cell_angle_gamma   90.00000000
_symmetry_Int_Tables_number   1
_chemical_formula_structural   Mg2(TeO3)3
_chemical_formula_sum   'Mg8 Te12 O36'
_cell_volume   691.37613411
_cell_formula_units_Z   4
loop_
 _symmetry_equiv_pos_site_id
 _symmetry_equiv_pos_as_xyz
  1  'x, y, z'
loop_
 _atom_site_type_symbol
 _atom_site_label
 _atom_site_symmetry_multiplicity
 _atom_site_fract_x
 _atom_site_fract_y
 _atom_site_fract_z
 _atom_site_occupancy
  Mg  Mg0  1  0.87148645  0.61131958  0.85843312  1
  Mg  Mg1  1  0.37917070  0.60166831  0.86374503  1
  Mg  Mg2  1  0.87917070  0.39833169  0.63625497  1
  Mg  Mg3  1  0.37148645  0.38868042  0.64156688  1
  Mg  Mg4  1  0.62851355  0.61131958  0.35843312  1
  Mg  Mg5  1  0.12082930  0.60166831  0.36374503  1
  Mg  Mg6  1  0.62082930  0.39833169  0.13625497  1
  Mg  Mg7  1  0.12851355  0.38868042  0.14156688  1
  Te  Te8  1  0.12825905  0.99495875  0.75177986  1
  Te  Te9  1  0.10764224  0.77628939  0.55914798  1
  Te  Te10  1  0.61457031  0.75954166  0.57279380  1
  Te  Te11  1  0.37174095  0.99495875  0.25177986  1
  Te  Te12  1  0.11457031  0.24045834  0.92720620  1
  Te  Te13  1  0.60764224  0.22371061  0.94085202  1
  Te  Te14  1  0.39235776  0.77628939  0.05914798  1
  Te  Te15  1  0.88542969  0.75954166  0.07279380  1
  Te  Te16  1  0.62825905  0.00504125  0.74822014  1
  Te  Te17  1  0.38542969  0.24045834  0.42720620  1
  Te  Te18  1  0.89235776  0.22371061  0.44085202  1
  Te  Te19  1  0.87174095  0.00504125  0.24822014  1
  O  O20  1  0.56694282  0.93092485  0.92415677  1
  O  O21  1  0.19595130  0.91476618  0.92343725  1
  O  O22  1  0.87740726  0.96258987  0.81139861  1
  O  O23  1  0.61544950  0.77193250  0.79809540  1
  O  O24  1  0.13273033  0.76221289  0.79726228  1
  O  O25  1  0.93305718  0.93092485  0.42415677  1
  O  O26  1  0.30404870  0.91476618  0.42343725  1
  O  O27  1  0.62259274  0.96258987  0.31139861  1
  O  O28  1  0.84616379  0.69058545  0.66644222  1
  O  O29  1  0.42561640  0.62501673  0.68915812  1
  O  O30  1  0.14143650  0.41571884  0.96431706  1
  O  O31  1  0.60876199  0.41566624  0.95823483  1
  O  O32  1  0.10876199  0.58433376  0.54176517  1
  O  O33  1  0.64143650  0.58428116  0.53568294  1
  O  O34  1  0.88455050  0.77193250  0.29809540  1
  O  O35  1  0.92561640  0.37498327  0.81084188  1
  O  O36  1  0.36726967  0.76221289  0.29726228  1
  O  O37  1  0.34616379  0.30941455  0.83355778  1
  O  O38  1  0.65383621  0.69058545  0.16644222  1
  O  O39  1  0.63273033  0.23778711  0.70273772  1
  O  O40  1  0.07438360  0.62501673  0.18915812  1
  O  O41  1  0.11544950  0.22806750  0.70190460  1
  O  O42  1  0.35856350  0.41571884  0.46431706  1
  O  O43  1  0.89123801  0.41566624  0.45823483  1
  O  O44  1  0.39123801  0.58433376  0.04176517  1
  O  O45  1  0.85856350  0.58428116  0.03568294  1
  O  O46  1  0.57438360  0.37498327  0.31084188  1
  O  O47  1  0.15383621  0.30941455  0.33355778  1
  O  O48  1  0.37740726  0.03741013  0.68860139  1
  O  O49  1  0.69595130  0.08523382  0.57656275  1
  O  O50  1  0.06694282  0.06907515  0.57584323  1
  O  O51  1  0.86726967  0.23778711  0.20273772  1
  O  O52  1  0.38455050  0.22806750  0.20190460  1
  O  O53  1  0.12259274  0.03741013  0.18860139  1
  O  O54  1  0.80404870  0.08523382  0.07656275  1
  O  O55  1  0.43305718  0.06907515  0.07584323  1
