# generated using pymatgen
data_KOsF6
_symmetry_space_group_name_H-M   'P 1'
_cell_length_a   4.91940351
_cell_length_b   4.91940847
_cell_length_c   4.91942015
_cell_angle_alpha   97.58854414
_cell_angle_beta   97.58855450
_cell_angle_gamma   97.58839204
_symmetry_Int_Tables_number   1
_chemical_formula_structural   KOsF6
_chemical_formula_sum   'K1 Os1 F6'
_cell_volume   115.61461348
_cell_formula_units_Z   1
loop_
 _symmetry_equiv_pos_site_id
 _symmetry_equiv_pos_as_xyz
  1  'x, y, z'
loop_
 _atom_site_type_symbol
 _atom_site_label
 _atom_site_symmetry_multiplicity
 _atom_site_fract_x
 _atom_site_fract_y
 _atom_site_fract_z
 _atom_site_occupancy
  K  K0  1  0.50000000  0.50000000  0.50000000  1
  Os  Os1  1  0.00000000  0.00000000  0.00000100  1
  F  F2  1  0.92621529  0.32514447  0.21498875  1
  F  F3  1  0.32514447  0.21498975  0.92621529  1
  F  F4  1  0.78501125  0.07378371  0.67485453  1
  F  F5  1  0.67485553  0.78501025  0.07378471  1
  F  F6  1  0.07378471  0.67485553  0.78501125  1
  F  F7  1  0.21498875  0.92621629  0.32514547  1
