# generated using pymatgen
data_Rb2S2O7
_symmetry_space_group_name_H-M   'P 1'
_cell_length_a   7.34506629
_cell_length_b   7.34506629
_cell_length_c   7.58312681
_cell_angle_alpha   86.37718064
_cell_angle_beta   86.37718064
_cell_angle_gamma   61.73371209
_symmetry_Int_Tables_number   1
_chemical_formula_structural   Rb2S2O7
_chemical_formula_sum   'Rb4 S4 O14'
_cell_volume   359.34821836
_cell_formula_units_Z   2
loop_
 _symmetry_equiv_pos_site_id
 _symmetry_equiv_pos_as_xyz
  1  'x, y, z'
loop_
 _atom_site_type_symbol
 _atom_site_label
 _atom_site_symmetry_multiplicity
 _atom_site_fract_x
 _atom_site_fract_y
 _atom_site_fract_z
 _atom_site_occupancy
  Rb  Rb0  1  0.99783076  0.29251742  0.64817014  1
  Rb  Rb1  1  0.29251742  0.99783076  0.14817014  1
  Rb  Rb2  1  0.70748258  0.00216924  0.85182986  1
  Rb  Rb3  1  0.00216924  0.70748258  0.35182986  1
  S  S4  1  0.42323123  0.77954940  0.64489111  1
  S  S5  1  0.77954940  0.42323123  0.14489111  1
  S  S6  1  0.22045060  0.57676877  0.85510889  1
  S  S7  1  0.57676877  0.22045060  0.35510889  1
  O  O8  1  0.63593980  0.69619455  0.58382955  1
  O  O9  1  0.69619455  0.63593980  0.08382955  1
  O  O10  1  0.36156604  0.93454204  0.77659182  1
  O  O11  1  0.93454204  0.36156604  0.27659182  1
  O  O12  1  0.84094671  0.27494667  0.00765409  1
  O  O13  1  0.27494667  0.84094671  0.50765409  1
  O  O14  1  0.42506404  0.57493596  0.75000000  1
  O  O15  1  0.57493596  0.42506404  0.25000000  1
  O  O16  1  0.72505333  0.15905329  0.49234591  1
  O  O17  1  0.15905329  0.72505333  0.99234591  1
  O  O18  1  0.06545796  0.63843396  0.72340818  1
  O  O19  1  0.63843396  0.06545796  0.22340818  1
  O  O20  1  0.30380545  0.36406020  0.91617045  1
  O  O21  1  0.36406020  0.30380545  0.41617045  1
