# generated using pymatgen
data_Ca2WO5
_symmetry_space_group_name_H-M   'P 1'
_cell_length_a   5.29882837
_cell_length_b   7.44777813
_cell_length_c   11.09571831
_cell_angle_alpha   70.88768156
_cell_angle_beta   90.00000000
_cell_angle_gamma   90.00000000
_symmetry_Int_Tables_number   1
_chemical_formula_structural   Ca2WO5
_chemical_formula_sum   'Ca8 W4 O20'
_cell_volume   413.74998509
_cell_formula_units_Z   4
loop_
 _symmetry_equiv_pos_site_id
 _symmetry_equiv_pos_as_xyz
  1  'x, y, z'
loop_
 _atom_site_type_symbol
 _atom_site_label
 _atom_site_symmetry_multiplicity
 _atom_site_fract_x
 _atom_site_fract_y
 _atom_site_fract_z
 _atom_site_occupancy
  Ca  Ca0  1  0.58248510  0.84567399  0.81361624  1
  Ca  Ca1  1  0.91751490  0.84567399  0.31361624  1
  Ca  Ca2  1  0.01046999  0.65950312  0.62859378  1
  Ca  Ca3  1  0.51046999  0.34049688  0.87140622  1
  Ca  Ca4  1  0.48953001  0.65950312  0.12859378  1
  Ca  Ca5  1  0.98953001  0.34049688  0.37140622  1
  Ca  Ca6  1  0.08248510  0.15432601  0.68638376  1
  Ca  Ca7  1  0.41751490  0.15432601  0.18638376  1
  W  W8  1  0.50000000  0.00000000  0.50000000  1
  W  W9  1  0.00000000  0.00000000  -0.00000000  1
  W  W10  1  0.50000000  0.50000000  0.50000000  1
  W  W11  1  0.00000000  0.50000000  -0.00000000  1
  O  O12  1  0.77182183  0.99495580  0.61221774  1
  O  O13  1  0.87125123  0.74904378  0.00007891  1
  O  O14  1  0.29740272  0.88562984  0.64604713  1
  O  O15  1  0.30805781  0.60749461  0.92798316  1
  O  O16  1  0.72817817  0.99495580  0.11221774  1
  O  O17  1  0.62874877  0.74904378  0.50007891  1
  O  O18  1  0.20259728  0.88562984  0.14604713  1
  O  O19  1  0.84709920  0.55632386  0.83297609  1
  O  O20  1  0.19194219  0.60749461  0.42798316  1
  O  O21  1  0.34709920  0.44367614  0.66702391  1
  O  O22  1  0.65290080  0.55632386  0.33297609  1
  O  O23  1  0.80805781  0.39250539  0.57201684  1
  O  O24  1  0.15290080  0.44367614  0.16702391  1
  O  O25  1  0.79740272  0.11437016  0.85395287  1
  O  O26  1  0.37125123  0.25095622  0.49992109  1
  O  O27  1  0.27182183  0.00504420  0.88778226  1
  O  O28  1  0.69194219  0.39250539  0.07201684  1
  O  O29  1  0.70259728  0.11437016  0.35395287  1
  O  O30  1  0.12874877  0.25095622  -0.00007891  1
  O  O31  1  0.22817817  0.00504420  0.38778226  1
