# generated using pymatgen
data_KNaZrSi3H4O11
_symmetry_space_group_name_H-M   'P 1'
_cell_length_a   6.73854084
_cell_length_b   11.75493781
_cell_length_c   13.00097754
_cell_angle_alpha   90.00000000
_cell_angle_beta   90.00000000
_cell_angle_gamma   90.00000000
_symmetry_Int_Tables_number   1
_chemical_formula_structural   KNaZrSi3H4O11
_chemical_formula_sum   'K4 Na4 Zr4 Si12 H16 O44'
_cell_volume   1029.82210260
_cell_formula_units_Z   4
loop_
 _symmetry_equiv_pos_site_id
 _symmetry_equiv_pos_as_xyz
  1  'x, y, z'
loop_
 _atom_site_type_symbol
 _atom_site_label
 _atom_site_symmetry_multiplicity
 _atom_site_fract_x
 _atom_site_fract_y
 _atom_site_fract_z
 _atom_site_occupancy
  K  K0  1  0.91026430  0.25062890  0.35182065  1
  K  K1  1  0.58973570  0.25062890  0.85182065  1
  K  K2  1  0.41026430  0.75062890  0.14817935  1
  K  K3  1  0.08973570  0.75062890  0.64817935  1
  Na  Na4  1  0.82893281  0.49834908  0.10577163  1
  Na  Na5  1  0.67106719  0.49834908  0.60577163  1
  Na  Na6  1  0.32893281  0.99834908  0.39422837  1
  Na  Na7  1  0.17106719  0.99834908  0.89422837  1
  Zr  Zr8  1  0.14690906  0.24955996  0.05391913  1
  Zr  Zr9  1  0.35309094  0.24955996  0.55391913  1
  Zr  Zr10  1  0.64690906  0.74955996  0.44608087  1
  Zr  Zr11  1  0.85309094  0.74955996  0.94608087  1
  Si  Si12  1  0.64526301  0.21399942  0.11056501  1
  Si  Si13  1  0.85473699  0.21399942  0.61056501  1
  Si  Si14  1  0.11361470  0.27967476  0.78825096  1
  Si  Si15  1  0.38638530  0.27967476  0.28825096  1
  Si  Si16  1  0.38907552  0.49795056  0.41600016  1
  Si  Si17  1  0.11092448  0.49795056  0.91600016  1
  Si  Si18  1  0.14526301  0.71399942  0.38943499  1
  Si  Si19  1  0.35473699  0.71399942  0.88943499  1
  Si  Si20  1  0.88638530  0.77967476  0.21174904  1
  Si  Si21  1  0.61361470  0.77967476  0.71174904  1
  Si  Si22  1  0.88907552  0.99795056  0.08399984  1
  Si  Si23  1  0.61092448  0.99795056  0.58399984  1
  H  H24  1  0.26615877  0.01490067  0.16803592  1
  H  H25  1  0.23384123  0.01490067  0.66803592  1
  H  H26  1  0.49280827  0.01169849  0.18310303  1
  H  H27  1  0.00719173  0.01169849  0.68310303  1
  H  H28  1  0.45561437  0.48396896  0.19472050  1
  H  H29  1  0.04438563  0.48396896  0.69472050  1
  H  H30  1  0.37867373  0.48422494  0.08260068  1
  H  H31  1  0.12132627  0.48422494  0.58260068  1
  H  H32  1  0.76615877  0.51490067  0.33196408  1
  H  H33  1  0.73384123  0.51490067  0.83196408  1
  H  H34  1  0.99280827  0.51169849  0.31689697  1
  H  H35  1  0.50719173  0.51169849  0.81689697  1
  H  H36  1  0.95561437  0.98396896  0.30527950  1
  H  H37  1  0.54438563  0.98396896  0.80527950  1
  H  H38  1  0.62132627  0.98422494  0.91739932  1
  H  H39  1  0.87867373  0.98422494  0.41739932  1
  O  O40  1  0.98187786  0.01665322  0.37315891  1
  O  O41  1  0.51812214  0.01665322  0.87315891  1
  O  O42  1  0.08574484  0.07482745  0.07174140  1
  O  O43  1  0.41425516  0.07482745  0.57174140  1
  O  O44  1  0.69525711  0.07662317  0.10992208  1
  O  O45  1  0.80474289  0.07662317  0.60992208  1
  O  O46  1  0.36283445  0.21235369  0.39491311  1
  O  O47  1  0.13716555  0.21235369  0.89491311  1
  O  O48  1  0.45197496  0.23561077  0.04162287  1
  O  O49  1  0.04802504  0.23561077  0.54162287  1
  O  O50  1  0.59283670  0.24243943  0.23103041  1
  O  O51  1  0.90716330  0.24243943  0.73103041  1
  O  O52  1  0.20196270  0.26777607  0.21039843  1
  O  O53  1  0.29803730  0.26777607  0.71039843  1
  O  O54  1  0.83978752  0.28179132  0.07403508  1
  O  O55  1  0.66021248  0.28179132  0.57403508  1
  O  O56  1  0.41695096  0.41591344  0.31531201  1
  O  O57  1  0.08304904  0.41591344  0.81531201  1
  O  O58  1  0.15488506  0.42374530  0.01765924  1
  O  O59  1  0.34511494  0.42374530  0.51765924  1
  O  O60  1  0.86940561  0.48231340  0.28777800  1
  O  O61  1  0.63059439  0.48231340  0.78777800  1
  O  O62  1  0.48187786  0.51665322  0.12684109  1
  O  O63  1  0.01812214  0.51665322  0.62684109  1
  O  O64  1  0.58574484  0.57482745  0.42825860  1
  O  O65  1  0.91425516  0.57482745  0.92825860  1
  O  O66  1  0.19525711  0.57662317  0.39007792  1
  O  O67  1  0.30474289  0.57662317  0.89007792  1
  O  O68  1  0.86283445  0.71235369  0.10508689  1
  O  O69  1  0.63716555  0.71235369  0.60508689  1
  O  O70  1  0.54802504  0.73561077  0.95837713  1
  O  O71  1  0.95197496  0.73561077  0.45837713  1
  O  O72  1  0.09283670  0.74243943  0.26896959  1
  O  O73  1  0.40716330  0.74243943  0.76896959  1
  O  O74  1  0.70196270  0.76777607  0.28960157  1
  O  O75  1  0.79803730  0.76777607  0.78960157  1
  O  O76  1  0.33978752  0.78179132  0.42596492  1
  O  O77  1  0.16021248  0.78179132  0.92596492  1
  O  O78  1  0.91695096  0.91591344  0.18468799  1
  O  O79  1  0.58304904  0.91591344  0.68468799  1
  O  O80  1  0.84511494  0.92374530  0.98234076  1
  O  O81  1  0.65488506  0.92374530  0.48234076  1
  O  O82  1  0.36940561  0.98231340  0.21222200  1
  O  O83  1  0.13059439  0.98231340  0.71222200  1
