# generated using pymatgen
data_PbS
_symmetry_space_group_name_H-M   'P 1'
_cell_length_a   4.22131561
_cell_length_b   4.22131561
_cell_length_c   16.56598558
_cell_angle_alpha   86.90088209
_cell_angle_beta   86.90088209
_cell_angle_gamma   89.99205921
_symmetry_Int_Tables_number   1
_chemical_formula_structural   PbS
_chemical_formula_sum   'Pb2 S2'
_cell_volume   294.33370280
_cell_formula_units_Z   2
loop_
 _symmetry_equiv_pos_site_id
 _symmetry_equiv_pos_as_xyz
  1  'x, y, z'
loop_
 _atom_site_type_symbol
 _atom_site_label
 _atom_site_symmetry_multiplicity
 _atom_site_fract_x
 _atom_site_fract_y
 _atom_site_fract_z
 _atom_site_occupancy
  Pb  Pb0  1  0.76757337  0.76757337  0.91377397  1
  Pb  Pb1  1  0.23242663  0.23242663  0.08622603  1
  S  S2  1  0.26600508  0.26600508  0.92515651  1
  S  S3  1  0.73399492  0.73399492  0.07484349  1
