# generated using pymatgen
data_Li6V3P8O29
_symmetry_space_group_name_H-M   'P 1'
_cell_length_a   9.79430933
_cell_length_b   9.82501559
_cell_length_c   13.98091303
_cell_angle_alpha   90.01665431
_cell_angle_beta   89.78916940
_cell_angle_gamma   59.72141275
_symmetry_Int_Tables_number   1
_chemical_formula_structural   Li6V3P8O29
_chemical_formula_sum   'Li12 V6 P16 O58'
_cell_volume   1161.83091099
_cell_formula_units_Z   2
loop_
 _symmetry_equiv_pos_site_id
 _symmetry_equiv_pos_as_xyz
  1  'x, y, z'
loop_
 _atom_site_type_symbol
 _atom_site_label
 _atom_site_symmetry_multiplicity
 _atom_site_fract_x
 _atom_site_fract_y
 _atom_site_fract_z
 _atom_site_occupancy
  Li  Li0  1  0.89828700  0.76191900  0.05968300  1
  Li  Li1  1  0.76021700  0.90514800  0.56305700  1
  Li  Li2  1  0.90160700  0.33672600  0.55923000  1
  Li  Li3  1  0.75882500  0.33644400  0.06280900  1
  Li  Li4  1  0.33248200  0.90140000  0.05873400  1
  Li  Li5  1  0.33208400  0.76548500  0.55956700  1
  Li  Li6  1  0.23417700  0.66771600  0.93876600  1
  Li  Li7  1  0.09852400  0.66643800  0.43931100  1
  Li  Li8  1  0.23607200  0.09851500  0.43898000  1
  Li  Li9  1  0.09565100  0.23482700  0.93957100  1
  Li  Li10  1  0.94673700  0.01350900  0.99326600  1
  Li  Li11  1  0.94926000  0.03742900  0.49344400  1
  V  V12  1  0.56280600  0.43267000  0.25403600  1
  V  V13  1  0.43982100  0.56146600  0.74940100  1
  V  V14  1  0.56138900  0.00531500  0.75326100  1
  V  V15  1  0.44206400  0.99639200  0.24857400  1
  V  V16  1  0.00209200  0.56216000  0.24902300  1
  V  V17  1  0.99871200  0.43890500  0.74883600  1
  P  P18  1  0.91160900  0.77691100  0.84127600  1
  P  P19  1  0.77631900  0.91254300  0.34627700  1
  P  P20  1  0.91228100  0.31297300  0.34173800  1
  P  P21  1  0.66645100  0.66235700  0.13043100  1
  P  P22  1  0.66734000  0.67067500  0.63039700  1
  P  P23  1  0.77639200  0.31075300  0.84722700  1
  P  P24  1  0.69777100  0.21947500  0.66078000  1
  P  P25  1  0.31316800  0.91193500  0.84044400  1
  P  P26  1  0.69737000  0.08296200  0.16076000  1
  P  P27  1  0.31219100  0.77522200  0.34098600  1
  P  P28  1  0.22678100  0.68671700  0.15645100  1
  P  P29  1  0.33142700  0.33452800  0.36914000  1
  P  P30  1  0.32890600  0.33476600  0.86938600  1
  P  P31  1  0.09032500  0.68569200  0.65789400  1
  P  P32  1  0.22595400  0.08609900  0.65623000  1
  P  P33  1  0.08943000  0.22490100  0.15757100  1
  O  O34  1  0.00186800  0.77441000  0.56922000  1
  O  O35  1  0.91905800  0.74272000  0.33896400  1
  O  O36  1  0.80115200  0.98709800  0.07903800  1
  O  O37  1  0.74533600  0.91767600  0.83841000  1
  O  O38  1  0.91182800  0.62061800  0.83035000  1
  O  O39  1  0.81181400  0.67299600  0.16947300  1
  O  O40  1  0.91216900  0.46867900  0.32928700  1
  O  O41  1  0.99961600  0.22734500  0.06907900  1
  O  O42  1  0.91927000  0.33586100  0.84049400  1
  O  O43  1  0.67525000  0.81508700  0.67165000  1
  O  O44  1  0.61929000  0.91358700  0.33342900  1
  O  O45  1  0.81418500  0.51484500  0.67213100  1
  O  O46  1  0.66281300  0.66395500  0.02377200  1
  O  O47  1  0.67347700  0.66698800  0.52378400  1
  O  O48  1  0.67500200  0.51058600  0.17229700  1
  O  O49  1  0.47213900  0.90476800  0.82874500  1
  O  O50  1  0.51087000  0.81064900  0.17232800  1
  O  O51  1  0.74566700  0.33948500  0.33990000  1
  O  O52  1  0.79331600  0.19790200  0.75905100  1
  O  O53  1  0.80166400  0.21105500  0.57920300  1
  O  O54  1  0.78410800  0.22709200  0.93896400  1
  O  O55  1  0.62029200  0.46730100  0.83188300  1
  O  O56  1  0.51385100  0.67794000  0.67061400  1
  O  O57  1  0.66724700  0.25201400  0.15895900  1
  O  O58  1  0.47181100  0.62268800  0.32879100  1
  O  O59  1  0.33324200  0.92050100  0.34006500  1
  O  O60  1  0.79410800  0.00832400  0.25899500  1
  O  O61  1  0.78677900  0.98563200  0.43845400  1
  O  O62  1  0.22672500  0.99811500  0.56709000  1
  O  O63  1  0.66595300  0.08193300  0.65846400  1
  O  O64  1  0.54097400  0.37965300  0.67011700  1
  O  O65  1  0.33625300  0.74326500  0.83999700  1
  O  O66  1  0.48131300  0.32888800  0.32360900  1
  O  O67  1  0.38236800  0.53101900  0.16868000  1
  O  O68  1  0.22560900  0.77506400  0.06738300  1
  O  O69  1  0.22469700  0.77445400  0.43038600  1
  O  O70  1  0.20296800  0.79657200  0.24908000  1
  O  O71  1  0.25995300  0.66072900  0.65758500  1
  O  O72  1  0.47891900  0.18965200  0.82352200  1
  O  O73  1  0.54011200  0.08209200  0.16984400  1
  O  O74  1  0.32381100  0.48672000  0.83006800  1
  O  O75  1  0.31953000  0.33243700  0.97530900  1
  O  O76  1  0.32496100  0.34011800  0.47532300  1
  O  O77  1  0.18611800  0.49048900  0.32724500  1
  O  O78  1  0.38079100  0.08721400  0.66869400  1
  O  O79  1  0.32557900  0.18844000  0.32754300  1
  O  O80  1  0.08190400  0.66438700  0.15691300  1
  O  O81  1  0.00622000  0.79393700  0.75041200  1
  O  O82  1  0.99822800  0.77890600  0.93082400  1
  O  O83  1  0.09491400  0.52832500  0.66940300  1
  O  O84  1  0.18365600  0.32729000  0.82485900  1
  O  O85  1  0.09171700  0.37983100  0.16952000  1
  O  O86  1  0.25825200  0.08158700  0.15606800  1
  O  O87  1  0.22487300  0.99938700  0.92983700  1
  O  O88  1  0.20369800  0.99807100  0.74867200  1
  O  O89  1  0.08125300  0.25345000  0.65648700  1
  O  O90  1  0.99980200  0.22296500  0.43093700  1
  O  O91  1  0.00451000  0.20242900  0.25005200  1
