# generated using pymatgen
data_HgO
_symmetry_space_group_name_H-M   'P 1'
_cell_length_a   3.61501779
_cell_length_b   3.61495473
_cell_length_c   8.83536763
_cell_angle_alpha   90.00114624
_cell_angle_beta   89.99658028
_cell_angle_gamma   120.00078787
_symmetry_Int_Tables_number   1
_chemical_formula_structural   HgO
_chemical_formula_sum   'Hg3 O3'
_cell_volume   99.99196659
_cell_formula_units_Z   3
loop_
 _symmetry_equiv_pos_site_id
 _symmetry_equiv_pos_as_xyz
  1  'x, y, z'
loop_
 _atom_site_type_symbol
 _atom_site_label
 _atom_site_symmetry_multiplicity
 _atom_site_fract_x
 _atom_site_fract_y
 _atom_site_fract_z
 _atom_site_occupancy
  Hg  Hg0  1  0.24037897  0.24034922  -0.00002821  1
  Hg  Hg1  1  0.00010004  0.75958539  0.66667546  1
  Hg  Hg2  1  0.75957424  0.00007692  0.33335057  1
  O  O3  1  0.54069089  0.54070557  0.49999207  1
  O  O4  1  0.00001120  0.45925792  0.16667835  1
  O  O5  1  0.45924466  0.00002498  0.83333076  1
