# generated using pymatgen
data_La2WO6
_symmetry_space_group_name_H-M   'P 1'
_cell_length_a   5.47442005
_cell_length_b   9.41664727
_cell_length_c   10.37036565
_cell_angle_alpha   90.00000000
_cell_angle_beta   90.00000000
_cell_angle_gamma   90.00000000
_symmetry_Int_Tables_number   1
_chemical_formula_structural   La2WO6
_chemical_formula_sum   'La8 W4 O24'
_cell_volume   534.59942826
_cell_formula_units_Z   4
loop_
 _symmetry_equiv_pos_site_id
 _symmetry_equiv_pos_as_xyz
  1  'x, y, z'
loop_
 _atom_site_type_symbol
 _atom_site_label
 _atom_site_symmetry_multiplicity
 _atom_site_fract_x
 _atom_site_fract_y
 _atom_site_fract_z
 _atom_site_occupancy
  La  La0  1  0.02747875  0.39499466  0.04118531  1
  La  La1  1  0.02488092  0.28020300  0.63448282  1
  La  La2  1  0.47511908  0.71979700  0.13448282  1
  La  La3  1  0.47252125  0.60500534  0.54118531  1
  La  La4  1  0.52747875  0.10500534  0.95881469  1
  La  La5  1  0.52488092  0.21979700  0.36551718  1
  La  La6  1  0.97511908  0.78020300  0.86551718  1
  La  La7  1  0.97252125  0.89499466  0.45881469  1
  W  W8  1  0.04175286  0.00346821  0.14482443  1
  W  W9  1  0.45824714  0.99653179  0.64482443  1
  W  W10  1  0.54175286  0.49653179  0.85517557  1
  W  W11  1  0.95824714  0.50346821  0.35517557  1
  O  O12  1  0.06564470  0.64773116  0.47816665  1
  O  O13  1  0.17137203  0.54914592  0.22095177  1
  O  O14  1  0.20168220  0.86376174  0.67560926  1
  O  O15  1  0.18200047  0.86520385  0.25564184  1
  O  O16  1  0.21572353  0.38969165  0.43842030  1
  O  O17  1  0.24750231  0.08860618  0.51027159  1
  O  O18  1  0.25249769  0.91139382  0.01027159  1
  O  O19  1  0.28427647  0.61030835  0.93842030  1
  O  O20  1  0.31799953  0.13479615  0.75564184  1
  O  O21  1  0.29831780  0.13623826  0.17560926  1
  O  O22  1  0.32862797  0.45085408  0.72095177  1
  O  O23  1  0.43435530  0.35226884  0.97816665  1
  O  O24  1  0.56564470  0.85226884  0.52183335  1
  O  O25  1  0.67137203  0.95085408  0.77904823  1
  O  O26  1  0.70168220  0.63623826  0.32439074  1
  O  O27  1  0.68200047  0.63479615  0.74435816  1
  O  O28  1  0.71572353  0.11030835  0.56157970  1
  O  O29  1  0.74750231  0.41139382  0.48972841  1
  O  O30  1  0.75249769  0.58860618  0.98972841  1
  O  O31  1  0.78427647  0.88969165  0.06157970  1
  O  O32  1  0.81799953  0.36520385  0.24435816  1
  O  O33  1  0.79831780  0.36376174  0.82439074  1
  O  O34  1  0.82862797  0.04914592  0.27904823  1
  O  O35  1  0.93435530  0.14773116  0.02183335  1
