# generated using pymatgen
data_GeSe
_symmetry_space_group_name_H-M   'P 1'
_cell_length_a   3.78718786
_cell_length_b   4.66436352
_cell_length_c   11.25603494
_cell_angle_alpha   90.00000000
_cell_angle_beta   90.00000000
_cell_angle_gamma   90.00000000
_symmetry_Int_Tables_number   1
_chemical_formula_structural   GeSe
_chemical_formula_sum   'Ge4 Se4'
_cell_volume   198.83584123
_cell_formula_units_Z   4
loop_
 _symmetry_equiv_pos_site_id
 _symmetry_equiv_pos_as_xyz
  1  'x, y, z'
loop_
 _atom_site_type_symbol
 _atom_site_label
 _atom_site_symmetry_multiplicity
 _atom_site_fract_x
 _atom_site_fract_y
 _atom_site_fract_z
 _atom_site_occupancy
  Ge  Ge0  1  0.25000000  0.11900173  0.12909864  1
  Ge  Ge1  1  0.75000000  0.88099827  0.87090136  1
  Ge  Ge2  1  0.75000000  0.61900173  0.37090136  1
  Ge  Ge3  1  0.25000000  0.38099827  0.62909864  1
  Se  Se4  1  0.25000000  0.51546856  0.84927919  1
  Se  Se5  1  0.75000000  0.48453144  0.15072081  1
  Se  Se6  1  0.75000000  0.01546856  0.65072081  1
  Se  Se7  1  0.25000000  -0.01546856  0.34928019  1
