# generated using pymatgen
data_MnH6(OF)3
_symmetry_space_group_name_H-M   'P 1'
_cell_length_a   8.31042035
_cell_length_b   9.40464171
_cell_length_c   6.27084076
_cell_angle_alpha   89.99840324
_cell_angle_beta   97.13980900
_cell_angle_gamma   89.99834797
_symmetry_Int_Tables_number   1
_chemical_formula_structural   MnH6(OF)3
_chemical_formula_sum   'Mn4 H24 O12 F12'
_cell_volume   486.30674901
_cell_formula_units_Z   4
loop_
 _symmetry_equiv_pos_site_id
 _symmetry_equiv_pos_as_xyz
  1  'x, y, z'
loop_
 _atom_site_type_symbol
 _atom_site_label
 _atom_site_symmetry_multiplicity
 _atom_site_fract_x
 _atom_site_fract_y
 _atom_site_fract_z
 _atom_site_occupancy
  Mn  Mn0  1  0.50000000  0.50000000  0.50000000  1
  Mn  Mn1  1  0.50000000  -0.00000000  0.00000000  1
  Mn  Mn2  1  0.00000000  0.50000000  0.00000000  1
  Mn  Mn3  1  0.00000000  -0.00000000  0.50000000  1
  H  H4  1  0.55675047  0.22246357  0.66070052  1
  H  H5  1  0.44325286  0.72247373  0.83928384  1
  H  H6  1  0.44324953  0.77753643  0.33929948  1
  H  H7  1  0.55674714  0.27752627  0.16071616  1
  H  H8  1  0.71280581  0.31647804  0.71412823  1
  H  H9  1  0.28720513  0.81649642  0.78587370  1
  H  H10  1  0.28719419  0.68352196  0.28587177  1
  H  H11  1  0.71279487  0.18350358  0.21412630  1
  H  H12  1  0.12792748  0.41148822  0.39408592  1
  H  H13  1  0.87207376  0.91150605  0.10591825  1
  H  H14  1  0.87207252  0.58851178  0.60591408  1
  H  H15  1  0.12792624  0.08849395  0.89408175  1
  H  H16  1  0.98656246  0.30169115  0.31727265  1
  H  H17  1  0.01342414  0.80169444  0.18270889  1
  H  H18  1  0.01343754  0.69830885  0.68272735  1
  H  H19  1  0.98657586  0.19830556  0.81729111  1
  H  H20  1  0.24667281  0.42876222  0.79125013  1
  H  H21  1  0.75333657  0.92876903  0.70874846  1
  H  H22  1  0.75332719  0.57123778  0.20874987  1
  H  H23  1  0.24666343  0.07123097  0.29125154  1
  H  H24  1  0.30776410  0.42175020  0.04374169  1
  H  H25  1  0.69224538  0.92174995  0.45626155  1
  H  H26  1  0.69223590  0.57824980  0.95625831  1
  H  H27  1  0.30775462  0.07825005  0.54373845  1
  O  O28  1  0.61618390  0.30329783  0.61065011  1
  O  O29  1  0.38382805  0.80330773  0.88934891  1
  O  O30  1  0.38381610  0.69670217  0.38934889  1
  O  O31  1  0.61617195  0.19669227  0.11065109  1
  O  O32  1  0.02770173  0.39742691  0.29542014  1
  O  O33  1  0.97230253  0.89743530  0.20457410  1
  O  O34  1  0.97229827  0.60257309  0.70457986  1
  O  O35  1  0.02769747  0.10256470  0.79542590  1
  O  O36  1  0.21223620  0.41306589  0.93435701  1
  O  O37  1  0.78777458  0.91306925  0.56564651  1
  O  O38  1  0.78776380  0.58693411  0.06564299  1
  O  O39  1  0.21222542  0.08693075  0.43435349  1
  F  F40  1  0.29695990  0.43637766  0.55293394  1
  F  F41  1  0.70302813  0.93637871  0.94707079  1
  F  F42  1  0.70304010  0.56362234  0.44706606  1
  F  F43  1  0.29697187  0.06362129  0.05292921  1
  F  F44  1  0.53745300  0.57429223  0.77712727  1
  F  F45  1  0.46254344  0.07429009  0.72286573  1
  F  F46  1  0.46254700  0.42570777  0.22287273  1
  F  F47  1  0.53745656  0.92570991  0.27713427  1
  F  F48  1  0.89330999  0.34955401  0.86663547  1
  F  F49  1  0.10670007  0.84955356  0.63337786  1
  F  F50  1  0.10669001  0.65044599  0.13336453  1
  F  F51  1  0.89329993  0.15044644  0.36662214  1
