# generated using pymatgen
data_Na2MnO3
_symmetry_space_group_name_H-M   'P 1'
_cell_length_a   5.17580787
_cell_length_b   5.17580787
_cell_length_c   5.57184321
_cell_angle_alpha   80.86165156
_cell_angle_beta   80.86165156
_cell_angle_gamma   120.02312727
_symmetry_Int_Tables_number   1
_chemical_formula_structural   Na2MnO3
_chemical_formula_sum   'Na4 Mn2 O6'
_cell_volume   122.53862592
_cell_formula_units_Z   2
loop_
 _symmetry_equiv_pos_site_id
 _symmetry_equiv_pos_as_xyz
  1  'x, y, z'
loop_
 _atom_site_type_symbol
 _atom_site_label
 _atom_site_symmetry_multiplicity
 _atom_site_fract_x
 _atom_site_fract_y
 _atom_site_fract_z
 _atom_site_occupancy
  Na  Na0  1  -0.00000000  -0.00000000  0.00000000  1
  Na  Na1  1  0.34295557  0.65704443  0.00000000  1
  Na  Na2  1  0.65704443  0.34295557  0.00000000  1
  Na  Na3  1  0.50000000  0.50000000  0.50000000  1
  Mn  Mn4  1  0.16736651  0.83263349  0.50000000  1
  Mn  Mn5  1  0.83263349  0.16736651  0.50000000  1
  O  O6  1  0.56813685  0.94385651  0.29947714  1
  O  O7  1  0.43186315  0.05614349  0.70052286  1
  O  O8  1  0.80627836  0.80627836  0.70074104  1
  O  O9  1  0.94385651  0.56813685  0.29947714  1
  O  O10  1  0.05614349  0.43186315  0.70052286  1
  O  O11  1  0.19372164  0.19372164  0.29925896  1
