# generated using pymatgen
data_NdAsO4
_symmetry_space_group_name_H-M   'P 1'
_cell_length_a   6.08583677
_cell_length_b   6.08583677
_cell_length_c   6.08583677
_cell_angle_alpha   106.41420718
_cell_angle_beta   106.40437497
_cell_angle_gamma   115.78567385
_symmetry_Int_Tables_number   1
_chemical_formula_structural   NdAsO4
_chemical_formula_sum   'Nd2 As2 O8'
_cell_volume   171.91807365
_cell_formula_units_Z   2
loop_
 _symmetry_equiv_pos_site_id
 _symmetry_equiv_pos_as_xyz
  1  'x, y, z'
loop_
 _atom_site_type_symbol
 _atom_site_label
 _atom_site_symmetry_multiplicity
 _atom_site_fract_x
 _atom_site_fract_y
 _atom_site_fract_z
 _atom_site_occupancy
  Nd  Nd0  1  0.87501932  0.12501932  0.75000000  1
  Nd  Nd1  1  0.12498068  0.87498068  0.25000000  1
  As  As2  1  0.62499384  0.37499384  0.25000000  1
  As  As3  1  0.37500616  0.62500616  0.75000000  1
  O  O4  1  0.79334666  0.36483299  0.07148533  1
  O  O5  1  0.27805714  0.20658202  0.07147512  1
  O  O6  1  0.63510790  0.20658202  0.42852488  1
  O  O7  1  0.79334666  0.72186033  0.42851467  1
  O  O8  1  0.20665234  0.27813967  0.57148533  1
  O  O9  1  0.72194286  0.79341798  0.92852488  1
  O  O10  1  0.36489210  0.79341798  0.57147512  1
  O  O11  1  0.20665234  0.63516701  0.92851467  1
