# generated using pymatgen
data_H4SeO5
_symmetry_space_group_name_H-M   'P 1'
_cell_length_a   8.42506667
_cell_length_b   9.09337201
_cell_length_c   10.40987129
_cell_angle_alpha   90.00000000
_cell_angle_beta   90.00000000
_cell_angle_gamma   90.00000000
_symmetry_Int_Tables_number   1
_chemical_formula_structural   H4SeO5
_chemical_formula_sum   'H32 Se8 O40'
_cell_volume   797.52382246
_cell_formula_units_Z   8
loop_
 _symmetry_equiv_pos_site_id
 _symmetry_equiv_pos_as_xyz
  1  'x, y, z'
loop_
 _atom_site_type_symbol
 _atom_site_label
 _atom_site_symmetry_multiplicity
 _atom_site_fract_x
 _atom_site_fract_y
 _atom_site_fract_z
 _atom_site_occupancy
  H  H0  1  0.76961406  0.27902423  0.45049387  1
  H  H1  1  0.26961406  0.72097577  0.04950613  1
  H  H2  1  0.23038594  0.22097577  0.95049387  1
  H  H3  1  0.73038594  0.77902423  0.54950613  1
  H  H4  1  0.23038594  0.72097577  0.54950613  1
  H  H5  1  0.73038594  0.27902423  0.95049387  1
  H  H6  1  0.76961406  0.77902423  0.04950613  1
  H  H7  1  0.26961406  0.22097577  0.45049387  1
  H  H8  1  0.82170036  0.10291277  0.46391969  1
  H  H9  1  0.32170036  0.89708723  0.03608031  1
  H  H10  1  0.17829964  0.39708723  0.96391969  1
  H  H11  1  0.67829964  0.60291277  0.53608031  1
  H  H12  1  0.17829964  0.89708723  0.53608031  1
  H  H13  1  0.67829964  0.10291277  0.96391969  1
  H  H14  1  0.82170036  0.60291277  0.03608031  1
  H  H15  1  0.32170036  0.39708723  0.46391969  1
  H  H16  1  0.80133024  0.17555035  0.07102462  1
  H  H17  1  0.30133024  0.82444965  0.42897538  1
  H  H18  1  0.19866976  0.32444965  0.57102462  1
  H  H19  1  0.69866976  0.67555035  0.92897538  1
  H  H20  1  0.19866976  0.82444965  0.92897538  1
  H  H21  1  0.69866976  0.17555035  0.57102462  1
  H  H22  1  0.80133024  0.67555035  0.42897538  1
  H  H23  1  0.30133024  0.32444965  0.07102462  1
  H  H24  1  0.53887032  0.23982863  0.25575457  1
  H  H25  1  0.03887032  0.76017137  0.24424543  1
  H  H26  1  0.46112968  0.26017137  0.75575457  1
  H  H27  1  0.96112968  0.73982863  0.74424543  1
  H  H28  1  0.46112968  0.76017137  0.74424543  1
  H  H29  1  0.96112968  0.23982863  0.75575457  1
  H  H30  1  0.53887032  0.73982863  0.24424543  1
  H  H31  1  0.03887032  0.26017137  0.25575457  1
  Se  Se32  1  0.89173211  0.46408511  0.26618155  1
  Se  Se33  1  0.39173211  0.53591489  0.23381845  1
  Se  Se34  1  0.10826789  0.03591489  0.76618155  1
  Se  Se35  1  0.60826789  0.96408511  0.73381845  1
  Se  Se36  1  0.10826789  0.53591489  0.73381845  1
  Se  Se37  1  0.60826789  0.46408511  0.76618155  1
  Se  Se38  1  0.89173211  0.96408511  0.23381845  1
  Se  Se39  1  0.39173211  0.03591489  0.26618155  1
  O  O40  1  0.74202049  0.39184068  0.34414981  1
  O  O41  1  0.24202049  0.60815932  0.15585019  1
  O  O42  1  0.25797951  0.10815932  0.84414981  1
  O  O43  1  0.75797951  0.89184068  0.65585019  1
  O  O44  1  0.25797951  0.60815932  0.65585019  1
  O  O45  1  0.75797951  0.39184068  0.84414981  1
  O  O46  1  0.74202049  0.89184068  0.15585019  1
  O  O47  1  0.24202049  0.10815932  0.34414981  1
  O  O48  1  0.86837826  0.46389886  0.11073404  1
  O  O49  1  0.36837826  0.53610114  0.38926596  1
  O  O50  1  0.13162174  0.03610114  0.61073404  1
  O  O51  1  0.63162174  0.96389886  0.88926596  1
  O  O52  1  0.13162174  0.53610114  0.88926596  1
  O  O53  1  0.63162174  0.46389886  0.61073404  1
  O  O54  1  0.86837826  0.96389886  0.38926596  1
  O  O55  1  0.36837826  0.03610114  0.11073404  1
  O  O56  1  0.93742776  0.62522958  0.32817580  1
  O  O57  1  0.43742776  0.37477042  0.17182420  1
  O  O58  1  0.06257224  0.87477042  0.82817580  1
  O  O59  1  0.56257224  0.12522958  0.67182420  1
  O  O60  1  0.06257224  0.37477042  0.67182420  1
  O  O61  1  0.56257224  0.62522958  0.82817580  1
  O  O62  1  0.93742776  0.12522958  0.17182420  1
  O  O63  1  0.43742776  0.87477042  0.32817580  1
  O  O64  1  0.05719341  0.35692043  0.29896742  1
  O  O65  1  0.55719341  0.64307957  0.20103258  1
  O  O66  1  0.94280659  0.14307957  0.79896742  1
  O  O67  1  0.44280659  0.85692043  0.70103258  1
  O  O68  1  0.94280659  0.64307957  0.70103258  1
  O  O69  1  0.44280659  0.35692043  0.79896742  1
  O  O70  1  0.05719341  0.85692043  0.20103258  1
  O  O71  1  0.55719341  0.14307957  0.29896742  1
  O  O72  1  0.70783016  0.19561585  0.01349008  1
  O  O73  1  0.20783016  0.80438415  0.48650992  1
  O  O74  1  0.29216984  0.30438415  0.51349008  1
  O  O75  1  0.79216984  0.69561585  0.98650992  1
  O  O76  1  0.29216984  0.80438415  0.98650992  1
  O  O77  1  0.79216984  0.19561585  0.51349008  1
  O  O78  1  0.70783016  0.69561585  0.48650992  1
  O  O79  1  0.20783016  0.30438415  0.01349008  1
