# generated using pymatgen
data_Ba4(PtO3)3
_symmetry_space_group_name_H-M   'P 1'
_cell_length_a   8.65568722
_cell_length_b   10.11830698
_cell_length_c   10.17040118
_cell_angle_alpha   119.46767627
_cell_angle_beta   90.03442354
_cell_angle_gamma   90.03763971
_symmetry_Int_Tables_number   1
_chemical_formula_structural   Ba4(PtO3)3
_chemical_formula_sum   'Ba12 Pt9 O27'
_cell_volume   775.50116777
_cell_formula_units_Z   3
loop_
 _symmetry_equiv_pos_site_id
 _symmetry_equiv_pos_as_xyz
  1  'x, y, z'
loop_
 _atom_site_type_symbol
 _atom_site_label
 _atom_site_symmetry_multiplicity
 _atom_site_fract_x
 _atom_site_fract_y
 _atom_site_fract_z
 _atom_site_occupancy
  Ba  Ba0  1  0.24788970  0.31892131  0.99191158  1
  Ba  Ba1  1  0.00236024  0.64154283  0.00989799  1
  Ba  Ba2  1  0.50413735  0.66114965  0.00627033  1
  Ba  Ba3  1  0.24800696  0.67761055  0.69823523  1
  Ba  Ba4  1  0.25327520  0.02524847  0.33859113  1
  Ba  Ba5  1  0.75211095  0.70163684  0.67317049  1
  Ba  Ba6  1  0.99968956  0.35708316  0.35983008  1
  Ba  Ba7  1  0.49988500  0.33219160  0.33455498  1
  Ba  Ba8  1  0.49731808  0.00548162  0.66878505  1
  Ba  Ba9  1  -0.00000313  0.00760889  0.65683146  1
  Ba  Ba10  1  0.74859606  0.32721363  0.02152886  1
  Ba  Ba11  1  0.75109831  0.99521066  0.33038266  1
  Pt  Pt12  1  0.75728930  0.41091790  0.74274130  1
  Pt  Pt13  1  0.33822687  0.99826196  0.99621386  1
  Pt  Pt14  1  0.66047919  0.99913094  0.99720228  1
  Pt  Pt15  1  0.09564213  0.33675907  0.66559168  1
  Pt  Pt16  1  0.41892207  0.33537838  0.66354480  1
  Pt  Pt17  1  0.24296494  0.73619182  0.40581573  1
  Pt  Pt18  1  0.90459581  0.65942745  0.33243603  1
  Pt  Pt19  1  0.58132063  0.65738192  0.32914543  1
  Pt  Pt20  1  0.99901738  0.00082684  0.07649021  1
  O  O21  1  0.49812209  0.14651890  0.00046419  1
  O  O22  1  0.77367492  0.00928801  0.82866233  1
  O  O23  1  0.57398956  0.32708304  0.80630156  1
  O  O24  1  0.94166597  0.32835543  0.81075377  1
  O  O25  1  0.25876915  0.48909240  0.83032101  1
  O  O26  1  0.25621828  0.18715976  0.66121937  1
  O  O27  1  0.81710729  0.85075850  0.00050611  1
  O  O28  1  0.94337296  0.49679234  0.68010724  1
  O  O29  1  0.50008829  0.84954864  0.85223385  1
  O  O30  1  0.57396905  0.48927758  0.67209612  1
  O  O31  1  0.97840424  0.17187996  0.49282828  1
  O  O32  1  0.22450854  0.99845926  0.82409731  1
  O  O33  1  0.53086002  0.16978939  0.49063479  1
  O  O34  1  0.25650835  0.35218952  0.52339550  1
  O  O35  1  0.42835868  0.66489258  0.48267771  1
  O  O36  1  0.05553942  0.67575002  0.49332022  1
  O  O37  1  0.74263724  0.51761711  0.34829643  1
  O  O38  1  0.74328715  0.82284352  0.48017888  1
  O  O39  1  0.81163884  0.14702492  0.15429833  1
  O  O40  1  0.18580892  0.15015385  0.14745231  1
  O  O41  1  0.02167392  0.48184768  0.16922570  1
  O  O42  1  0.46928510  0.48330836  0.16329740  1
  O  O43  1  0.05968606  0.80568531  0.32631098  1
  O  O44  1  0.42415933  0.79848334  0.31908282  1
  O  O45  1  0.74471882  0.65615194  0.18153604  1
  O  O46  1  0.50109257  0.99364359  0.14976524  1
  O  O47  1  0.18202864  0.85232952  0.00446636  1
