# generated using pymatgen
data_Ba2SrI6
_symmetry_space_group_name_H-M   'P 1'
_cell_length_a   8.29648106
_cell_length_b   8.59820706
_cell_length_c   25.09552018
_cell_angle_alpha   87.20455848
_cell_angle_beta   90.00000000
_cell_angle_gamma   90.00000000
_symmetry_Int_Tables_number   1
_chemical_formula_structural   Ba2SrI6
_chemical_formula_sum   'Ba8 Sr4 I24'
_cell_volume   1788.05518615
_cell_formula_units_Z   4
loop_
 _symmetry_equiv_pos_site_id
 _symmetry_equiv_pos_as_xyz
  1  'x, y, z'
loop_
 _atom_site_type_symbol
 _atom_site_label
 _atom_site_symmetry_multiplicity
 _atom_site_fract_x
 _atom_site_fract_y
 _atom_site_fract_z
 _atom_site_occupancy
  Ba  Ba0  1  0.44522822  0.76983201  0.73868744  1
  Ba  Ba1  1  0.01971985  0.67348733  0.90778725  1
  Ba  Ba2  1  0.05477178  0.76983201  0.23868744  1
  Ba  Ba3  1  0.48028015  0.67348733  0.40778725  1
  Ba  Ba4  1  0.51971985  0.32651267  0.59221275  1
  Ba  Ba5  1  0.94522822  0.23016799  0.76131256  1
  Ba  Ba6  1  0.98028015  0.32651267  0.09221275  1
  Ba  Ba7  1  0.55477178  0.23016799  0.26131256  1
  Sr  Sr8  1  0.96494818  0.84213626  0.58946127  1
  Sr  Sr9  1  0.53505182  0.84213626  0.08946127  1
  Sr  Sr10  1  0.46494818  0.15786374  0.91053873  1
  Sr  Sr11  1  0.03505182  0.15786374  0.41053873  1
  I  I12  1  0.21173542  0.97549703  0.82810512  1
  I  I13  1  0.71274306  0.92398950  0.83968597  1
  I  I14  1  0.29842071  0.86651759  0.98501728  1
  I  I15  1  0.28826458  0.97549703  0.32810512  1
  I  I16  1  0.78725694  0.92398950  0.33968597  1
  I  I17  1  0.20157929  0.86651759  0.48501728  1
  I  I18  1  0.70934068  0.63677253  0.52224423  1
  I  I19  1  0.23521100  0.58692211  0.63997234  1
  I  I20  1  0.74945529  0.53187354  0.68720751  1
  I  I21  1  0.24945529  0.46812646  0.81279249  1
  I  I22  1  0.79065932  0.63677253  0.02224423  1
  I  I23  1  0.73521100  0.41307789  0.86002766  1
  I  I24  1  0.26478900  0.58692211  0.13997234  1
  I  I25  1  0.20934068  0.36322747  0.97775577  1
  I  I26  1  0.75054471  0.53187354  0.18720751  1
  I  I27  1  0.25054471  0.46812646  0.31279249  1
  I  I28  1  0.76478900  0.41307789  0.36002766  1
  I  I29  1  0.29065932  0.36322747  0.47775577  1
  I  I30  1  0.79842071  0.13348241  0.51498272  1
  I  I31  1  0.21274306  0.07601050  0.66031403  1
  I  I32  1  0.71173542  0.02450297  0.67189488  1
  I  I33  1  0.70157929  0.13348241  0.01498272  1
  I  I34  1  0.28725694  0.07601050  0.16031403  1
  I  I35  1  0.78826458  0.02450297  0.17189488  1
