# generated using pymatgen
data_Lu6TeO12
_symmetry_space_group_name_H-M   'P 1'
_cell_length_a   6.27780857
_cell_length_b   6.27780881
_cell_length_c   6.27780799
_cell_angle_alpha   98.83322104
_cell_angle_beta   98.83322721
_cell_angle_gamma   98.83321398
_symmetry_Int_Tables_number   1
_chemical_formula_structural   Lu6TeO12
_chemical_formula_sum   'Lu6 Te1 O12'
_cell_volume   237.57114169
_cell_formula_units_Z   1
loop_
 _symmetry_equiv_pos_site_id
 _symmetry_equiv_pos_as_xyz
  1  'x, y, z'
loop_
 _atom_site_type_symbol
 _atom_site_label
 _atom_site_symmetry_multiplicity
 _atom_site_fract_x
 _atom_site_fract_y
 _atom_site_fract_z
 _atom_site_occupancy
  Lu  Lu0  1  0.14461448  0.31880070  0.60926423  1
  Lu  Lu1  1  0.39073577  0.85538552  0.68119930  1
  Lu  Lu2  1  0.31880070  0.60926423  0.14461448  1
  Lu  Lu3  1  0.68119930  0.39073577  0.85538552  1
  Lu  Lu4  1  0.60926423  0.14461448  0.31880070  1
  Lu  Lu5  1  0.85538552  0.68119930  0.39073577  1
  Te  Te6  1  -0.00000000  -0.00000000  0.00000000  1
  O  O7  1  0.03649288  0.92328330  0.69910011  1
  O  O8  1  0.07671670  0.30089989  0.96350712  1
  O  O9  1  0.17732911  0.59083335  0.42882998  1
  O  O10  1  0.30089989  0.96350712  0.07671670  1
  O  O11  1  0.40916665  0.57117002  0.82267089  1
  O  O12  1  0.42882998  0.17732911  0.59083335  1
  O  O13  1  0.57117002  0.82267089  0.40916665  1
  O  O14  1  0.59083335  0.42882998  0.17732911  1
  O  O15  1  0.69910011  0.03649288  0.92328330  1
  O  O16  1  0.82267089  0.40916665  0.57117002  1
  O  O17  1  0.92328330  0.69910011  0.03649288  1
  O  O18  1  0.96350712  0.07671670  0.30089989  1
