# generated using pymatgen
data_Co3OF5
_symmetry_space_group_name_H-M   'P 1'
_cell_length_a   4.71648538
_cell_length_b   4.71648538
_cell_length_c   9.48302900
_cell_angle_alpha   90.00000000
_cell_angle_beta   90.00000000
_cell_angle_gamma   87.52689191
_symmetry_Int_Tables_number   1
_chemical_formula_structural   Co3OF5
_chemical_formula_sum   'Co6 O2 F10'
_cell_volume   210.75571818
_cell_formula_units_Z   2
loop_
 _symmetry_equiv_pos_site_id
 _symmetry_equiv_pos_as_xyz
  1  'x, y, z'
loop_
 _atom_site_type_symbol
 _atom_site_label
 _atom_site_symmetry_multiplicity
 _atom_site_fract_x
 _atom_site_fract_y
 _atom_site_fract_z
 _atom_site_occupancy
  Co  Co0  1  0.00922900  0.99077100  0.00731600  1
  Co  Co1  1  0.01457900  0.98542100  0.33333300  1
  Co  Co2  1  0.00922900  0.99077100  0.65935000  1
  Co  Co3  1  0.47306900  0.52693100  0.16902400  1
  Co  Co4  1  0.50901300  0.49098700  0.83333300  1
  Co  Co5  1  0.47306900  0.52693100  0.49764200  1
  O  O6  1  0.20305900  0.79694100  0.17061800  1
  O  O7  1  0.20305900  0.79694100  0.49604800  1
  F  F8  1  0.20251400  0.79748600  0.83333300  1
  F  F9  1  0.31055600  0.30683900  0.33333300  1
  F  F10  1  0.30713300  0.30244700  0.00283300  1
  F  F11  1  0.30713300  0.30244700  0.66383300  1
  F  F12  1  0.69755300  0.69286700  0.66383300  1
  F  F13  1  0.69755300  0.69286700  0.00283300  1
  F  F14  1  0.69316100  0.68944400  0.33333300  1
  F  F15  1  0.78792400  0.21207600  0.17064600  1
  F  F16  1  0.81424400  0.18575600  0.83333300  1
  F  F17  1  0.78792400  0.21207600  0.49602100  1
