# generated using pymatgen
data_Hf2N2O
_symmetry_space_group_name_H-M   'P 1'
_cell_length_a   8.65090103
_cell_length_b   8.66907959
_cell_length_c   8.68878221
_cell_angle_alpha   109.44532528
_cell_angle_beta   109.47460116
_cell_angle_gamma   109.38995919
_symmetry_Int_Tables_number   1
_chemical_formula_structural   Hf2N2O
_chemical_formula_sum   'Hf16 N16 O8'
_cell_volume   502.25716928
_cell_formula_units_Z   8
loop_
 _symmetry_equiv_pos_site_id
 _symmetry_equiv_pos_as_xyz
  1  'x, y, z'
loop_
 _atom_site_type_symbol
 _atom_site_label
 _atom_site_symmetry_multiplicity
 _atom_site_fract_x
 _atom_site_fract_y
 _atom_site_fract_z
 _atom_site_occupancy
  Hf  Hf0  1  0.99799698  0.00904990  0.50037957  1
  Hf  Hf1  1  0.25797920  0.71674424  0.46539026  1
  Hf  Hf2  1  0.77652201  0.53393776  0.25347456  1
  Hf  Hf3  1  0.28552719  0.03525301  0.24863610  1
  Hf  Hf4  1  0.73986538  0.78645341  0.03512034  1
  Hf  Hf5  1  0.48677398  0.48838960  0.48724381  1
  Hf  Hf6  1  0.96633200  0.74200898  0.71520147  1
  Hf  Hf7  1  0.49911121  0.99925879  0.00168922  1
  Hf  Hf8  1  0.01118579  0.50127260  0.99532488  1
  Hf  Hf9  1  0.53701842  0.25421481  0.78422116  1
  Hf  Hf10  1  0.03303120  0.25279922  0.28513827  1
  Hf  Hf11  1  0.46116444  0.74189610  0.21383409  1
  Hf  Hf12  1  0.25952806  0.21548409  0.96744940  1
  Hf  Hf13  1  0.21571844  0.46163433  0.74740374  1
  Hf  Hf14  1  0.71829219  0.97141334  0.75219017  1
  Hf  Hf15  1  0.75331990  0.29085622  0.54204586  1
  N  N16  1  0.73196250  0.76009870  0.27186910  1
  N  N17  1  0.53959788  0.27402218  0.04457519  1
  N  N18  1  0.26813397  0.23066869  0.72300120  1
  N  N19  1  0.51752456  0.74617395  0.47429864  1
  N  N20  1  0.22316562  0.77340097  0.23848499  1
  N  N21  1  0.22814343  0.95418202  0.96368913  1
  N  N22  1  0.73004167  0.49365651  0.45688899  1
  N  N23  1  0.00952272  0.54368510  0.77365869  1
  N  N24  1  0.25635391  0.27100917  0.22610166  1
  N  N25  1  0.48772997  0.25915251  0.53177635  1
  N  N26  1  0.77398237  0.22634914  0.76734137  1
  N  N27  1  0.77361554  0.04500398  0.03254331  1
  N  N28  1  0.46719008  0.72870209  0.95457537  1
  N  N29  1  0.23933219  0.46477004  0.01475142  1
  N  N30  1  0.26905893  0.51344706  0.54284337  1
  N  N31  1  0.94567777  0.21819982  0.48213572  1
  O  O32  1  0.95965981  0.00195771  0.73031157  1
  O  O33  1  0.05383884  0.77664324  0.51896092  1
  O  O34  1  0.44974298  0.96421372  0.72667642  1
  O  O35  1  0.03692296  0.99259688  0.26682266  1
  O  O36  1  0.98551501  0.46008948  0.23094493  1
  O  O37  1  0.75071109  0.73014439  0.78160093  1
  O  O38  1  0.75967426  0.53582095  0.98224331  1
  O  O39  1  0.54353253  0.03534630  0.26916188  1
