# generated using pymatgen
data_Ba2YCl7
_symmetry_space_group_name_H-M   'P 1'
_cell_length_a   15.63722941
_cell_length_b   6.86643317
_cell_length_c   10.59518734
_cell_angle_alpha   89.40476146
_cell_angle_beta   90.00000000
_cell_angle_gamma   90.00000000
_symmetry_Int_Tables_number   1
_chemical_formula_structural   Ba2YCl7
_chemical_formula_sum   'Ba8 Y4 Cl28'
_cell_volume   1137.56496486
_cell_formula_units_Z   4
loop_
 _symmetry_equiv_pos_site_id
 _symmetry_equiv_pos_as_xyz
  1  'x, y, z'
loop_
 _atom_site_type_symbol
 _atom_site_label
 _atom_site_symmetry_multiplicity
 _atom_site_fract_x
 _atom_site_fract_y
 _atom_site_fract_z
 _atom_site_occupancy
  Ba  Ba0  1  0.22024833  0.73519956  0.04892405  1
  Ba  Ba1  1  0.56077125  0.73490277  0.17643647  1
  Ba  Ba2  1  0.06077125  0.26509723  0.32356353  1
  Ba  Ba3  1  0.72024833  0.26480044  0.45107595  1
  Ba  Ba4  1  0.27975167  0.73519956  0.54892405  1
  Ba  Ba5  1  0.93922875  0.73490277  0.67643647  1
  Ba  Ba6  1  0.43922875  0.26509723  0.82356353  1
  Ba  Ba7  1  0.77975167  0.26480044  0.95107595  1
  Y  Y8  1  0.87290728  0.78245963  0.21818029  1
  Y  Y9  1  0.37290728  0.21754037  0.28181971  1
  Y  Y10  1  0.62709272  0.78245963  0.71818029  1
  Y  Y11  1  0.12709272  0.21754037  0.78181971  1
  Cl  Cl12  1  0.13967142  0.29190480  0.02896332  1
  Cl  Cl13  1  0.39573612  0.99919582  0.07090254  1
  Cl  Cl14  1  0.39504569  0.48738268  0.08534893  1
  Cl  Cl15  1  0.92943392  0.12897943  0.12324280  1
  Cl  Cl16  1  0.74239544  0.51126700  0.19818390  1
  Cl  Cl17  1  0.72750477  -0.00046175  0.20514536  1
  Cl  Cl18  1  0.04041207  0.70460786  0.21255864  1
  Cl  Cl19  1  0.54041207  0.29539214  0.28744136  1
  Cl  Cl20  1  0.22750477  0.00046175  0.29485464  1
  Cl  Cl21  1  0.24239544  0.48873300  0.30181610  1
  Cl  Cl22  1  0.42943392  0.87102057  0.37675720  1
  Cl  Cl23  1  0.89504569  0.51261732  0.41465107  1
  Cl  Cl24  1  0.89573612  0.00080418  0.42909746  1
  Cl  Cl25  1  0.63967142  0.70809520  0.47103668  1
  Cl  Cl26  1  0.36032858  0.29190480  0.52896332  1
  Cl  Cl27  1  0.10426388  0.99919582  0.57090254  1
  Cl  Cl28  1  0.10495431  0.48738268  0.58534893  1
  Cl  Cl29  1  0.57056608  0.12897943  0.62324280  1
  Cl  Cl30  1  0.75760456  0.51126700  0.69818390  1
  Cl  Cl31  1  0.77249523  -0.00046175  0.70514536  1
  Cl  Cl32  1  0.45958793  0.70460786  0.71255864  1
  Cl  Cl33  1  0.95958793  0.29539214  0.78744136  1
  Cl  Cl34  1  0.27249523  0.00046175  0.79485464  1
  Cl  Cl35  1  0.25760456  0.48873300  0.80181610  1
  Cl  Cl36  1  0.07056608  0.87102057  0.87675720  1
  Cl  Cl37  1  0.60495431  0.51261732  0.91465107  1
  Cl  Cl38  1  0.60426388  0.00080418  0.92909746  1
  Cl  Cl39  1  0.86032858  0.70809520  0.97103668  1
