# generated using pymatgen
data_Ba2Cu2O5
_symmetry_space_group_name_H-M   'P 1'
_cell_length_a   4.14542501
_cell_length_b   10.68465801
_cell_length_c   13.96996051
_cell_angle_alpha   90.00000000
_cell_angle_beta   90.00000000
_cell_angle_gamma   90.00000000
_symmetry_Int_Tables_number   1
_chemical_formula_structural   Ba2Cu2O5
_chemical_formula_sum   'Ba8 Cu8 O20'
_cell_volume   618.76375697
_cell_formula_units_Z   4
loop_
 _symmetry_equiv_pos_site_id
 _symmetry_equiv_pos_as_xyz
  1  'x, y, z'
loop_
 _atom_site_type_symbol
 _atom_site_label
 _atom_site_symmetry_multiplicity
 _atom_site_fract_x
 _atom_site_fract_y
 _atom_site_fract_z
 _atom_site_occupancy
  Ba  Ba0  1  0.31579538  0.04450895  0.86504903  1
  Ba  Ba1  1  0.32756727  0.20843018  0.54342426  1
  Ba  Ba2  1  0.82756727  0.29156982  0.04342426  1
  Ba  Ba3  1  0.81579538  0.45549105  0.36504903  1
  Ba  Ba4  1  0.18420462  0.54450895  0.86504903  1
  Ba  Ba5  1  0.17243273  0.70843018  0.54342426  1
  Ba  Ba6  1  0.67243273  0.79156982  0.04342426  1
  Ba  Ba7  1  0.68420462  0.95549105  0.36504903  1
  Cu  Cu8  1  0.16477782  0.01199353  0.15745154  1
  Cu  Cu9  1  0.33866195  0.23374792  0.24699466  1
  Cu  Cu10  1  0.83866195  0.26625208  0.74699466  1
  Cu  Cu11  1  0.66477782  0.48800647  0.65745154  1
  Cu  Cu12  1  0.33522218  0.51199353  0.15745154  1
  Cu  Cu13  1  0.16133805  0.73374792  0.24699466  1
  Cu  Cu14  1  0.66133805  0.76625208  0.74699466  1
  Cu  Cu15  1  0.83522218  0.98800647  0.65745154  1
  O  O16  1  0.17630047  0.08063893  0.27899454  1
  O  O17  1  0.83091050  0.04374896  0.53461134  1
  O  O18  1  0.04689359  0.12620545  0.70310699  1
  O  O19  1  0.33611230  0.16384364  0.12532304  1
  O  O20  1  0.82183992  0.20963754  0.86904459  1
  O  O21  1  0.32183992  0.29036246  0.36904459  1
  O  O22  1  0.83611230  0.33615636  0.62532304  1
  O  O23  1  0.54689359  0.37379455  0.20310699  1
  O  O24  1  0.33091050  0.45625104  0.03461134  1
  O  O25  1  0.67630047  0.41936107  0.77899454  1
  O  O26  1  0.32369953  0.58063893  0.27899454  1
  O  O27  1  0.66908950  0.54374896  0.53461134  1
  O  O28  1  0.45310641  0.62620545  0.70310699  1
  O  O29  1  0.16388770  0.66384364  0.12532304  1
  O  O30  1  0.67816008  0.70963754  0.86904459  1
  O  O31  1  0.17816008  0.79036246  0.36904459  1
  O  O32  1  0.66388770  0.83615636  0.62532304  1
  O  O33  1  0.95310641  0.87379455  0.20310699  1
  O  O34  1  0.16908950  0.95625104  0.03461134  1
  O  O35  1  0.82369953  0.91936107  0.77899454  1
