# generated using pymatgen
data_Ni17(As3O16)2
_symmetry_space_group_name_H-M   'P 1'
_cell_length_a   11.87075218
_cell_length_b   9.82611852
_cell_length_c   10.32093500
_cell_angle_alpha   69.58123262
_cell_angle_beta   90.00000000
_cell_angle_gamma   90.00000000
_symmetry_Int_Tables_number   1
_chemical_formula_structural   Ni17(As3O16)2
_chemical_formula_sum   'Ni34 As12 O64'
_cell_volume   1128.22734343
_cell_formula_units_Z   2
loop_
 _symmetry_equiv_pos_site_id
 _symmetry_equiv_pos_as_xyz
  1  'x, y, z'
loop_
 _atom_site_type_symbol
 _atom_site_label
 _atom_site_symmetry_multiplicity
 _atom_site_fract_x
 _atom_site_fract_y
 _atom_site_fract_z
 _atom_site_occupancy
  Ni  Ni0  1  0.62202324  0.00059378  0.24111023  1
  Ni  Ni1  1  0.50001764  0.74257022  0.24796308  1
  Ni  Ni2  1  0.62158285  0.74255361  0.00460365  1
  Ni  Ni3  1  0.49864791  0.26286162  0.24691702  1
  Ni  Ni4  1  0.37797676  0.99940622  0.75888977  1
  Ni  Ni5  1  0.24423543  0.00053464  0.50128453  1
  Ni  Ni6  1  0.50000000  -0.00000000  0.50000000  1
  Ni  Ni7  1  0.50135209  0.73713838  0.75308298  1
  Ni  Ni8  1  0.25067364  0.73754244  0.75658116  1
  Ni  Ni9  1  0.37475539  0.73591626  0.50528407  1
  Ni  Ni10  1  0.37841715  0.25744639  0.99539635  1
  Ni  Ni11  1  0.49998236  0.25742978  0.75203692  1
  Ni  Ni12  1  0.24981974  0.26686208  0.74408590  1
  Ni  Ni13  1  -0.00000000  -0.00000000  0.00000000  1
  Ni  Ni14  1  0.25576457  0.00053464  0.00128453  1
  Ni  Ni15  1  0.24932636  0.73754244  0.25658116  1
  Ni  Ni16  1  0.99864791  0.73713838  0.25308298  1
  Ni  Ni17  1  0.12524461  0.73591626  0.00528407  1
  Ni  Ni18  1  0.12158285  0.25744639  0.49539635  1
  Ni  Ni19  1  0.25018026  0.26686208  0.24408590  1
  Ni  Ni20  1  0.00001764  0.25742978  0.25203692  1
  Ni  Ni21  1  0.75576457  -0.00053464  0.49871547  1
  Ni  Ni22  1  0.12202324  0.99940622  0.25888977  1
  Ni  Ni23  1  0.99998236  0.74257022  0.74796308  1
  Ni  Ni24  1  0.74981974  0.73313792  0.75591410  1
  Ni  Ni25  1  0.87841715  0.74255361  0.50460365  1
  Ni  Ni26  1  0.87475539  0.26408374  0.99471593  1
  Ni  Ni27  1  0.00135209  0.26286162  0.74691702  1
  Ni  Ni28  1  0.75067364  0.26245756  0.74341884  1
  Ni  Ni29  1  0.74423543  -0.00053464  0.99871547  1
  Ni  Ni30  1  0.87797676  0.00059378  0.74111023  1
  Ni  Ni31  1  0.75018026  0.73313792  0.25591410  1
  Ni  Ni32  1  0.62524461  0.26408374  0.49471593  1
  Ni  Ni33  1  0.74932636  0.26245756  0.24341884  1
  As  As34  1  0.62490614  0.99960195  0.75069583  1
  As  As35  1  0.62473653  0.42279944  0.94279701  1
  As  As36  1  0.37509386  0.00039805  0.24930417  1
  As  As37  1  0.37509642  0.42422258  0.44298501  1
  As  As38  1  0.12490614  0.00039805  0.74930417  1
  As  As39  1  0.12490358  0.42422258  0.94298501  1
  As  As40  1  0.87509386  0.99960195  0.25069583  1
  As  As41  1  0.37526347  0.57720056  0.05720299  1
  As  As42  1  0.87526347  0.42279944  0.44279701  1
  As  As43  1  0.12473653  0.57720056  0.55720299  1
  As  As44  1  0.87509642  0.57577742  0.05701499  1
  As  As45  1  0.62490358  0.57577742  0.55701499  1
  O  O46  1  0.62441261  0.61232768  0.88046059  1
  O  O47  1  0.48341677  0.12000193  0.14589165  1
  O  O48  1  0.63122302  0.12019974  0.84942038  1
  O  O49  1  0.63393281  0.85942313  0.13605686  1
  O  O50  1  0.62335328  0.62814670  0.38234648  1
  O  O51  1  0.37541276  0.61446470  0.37892115  1
  O  O52  1  0.49348678  0.62965022  0.11925206  1
  O  O53  1  0.49349325  0.37114438  0.38120933  1
  O  O54  1  0.23579395  0.11422800  0.63927205  1
  O  O55  1  0.51483839  0.11485359  0.63754362  1
  O  O56  1  0.37342260  0.11253213  0.36277137  1
  O  O57  1  0.37569329  0.86992822  0.62679425  1
  O  O58  1  0.48516161  0.88514641  0.36245638  1
  O  O59  1  0.37598920  0.62954698  0.88230586  1
  O  O60  1  0.12458724  0.61446470  0.87892115  1
  O  O61  1  0.50650675  0.62885562  0.61879067  1
  O  O62  1  0.24320116  0.62962321  0.61953779  1
  O  O63  1  0.50651322  0.37034978  0.88074794  1
  O  O64  1  0.24353963  0.37127644  0.88261952  1
  O  O65  1  0.37664672  0.37185330  0.61765352  1
  O  O66  1  0.26420605  0.11422800  0.13927205  1
  O  O67  1  0.98516161  0.11485359  0.13754362  1
  O  O68  1  0.36606719  0.14057687  0.86394314  1
  O  O69  1  0.12657740  0.11253213  0.86277137  1
  O  O70  1  0.36877698  0.87980026  0.15057962  1
  O  O71  1  0.12430671  0.86992822  0.12679425  1
  O  O72  1  0.51658323  0.87999807  0.85410835  1
  O  O73  1  0.23669591  0.88581563  0.86617765  1
  O  O74  1  0.12401080  0.62954698  0.38230586  1
  O  O75  1  0.87558739  0.61232768  0.38046059  1
  O  O76  1  0.25679884  0.62962321  0.11953779  1
  O  O77  1  0.99349325  0.62885562  0.11879067  1
  O  O78  1  0.25646037  0.37127644  0.38261952  1
  O  O79  1  0.99348678  0.37034978  0.38074794  1
  O  O80  1  0.37558739  0.38767232  0.11953941  1
  O  O81  1  0.12335328  0.37185330  0.11765352  1
  O  O82  1  0.73669591  0.11418437  0.63382235  1
  O  O83  1  0.01658323  0.12000193  0.64589165  1
  O  O84  1  0.13393281  0.14057687  0.36394314  1
  O  O85  1  0.86877698  0.12019974  0.34942038  1
  O  O86  1  0.13122302  0.87980026  0.65057962  1
  O  O87  1  0.86606719  0.85942313  0.63605686  1
  O  O88  1  0.26330409  0.88581563  0.36617765  1
  O  O89  1  0.98341677  0.87999807  0.35410835  1
  O  O90  1  0.87664672  0.62814670  0.88234648  1
  O  O91  1  0.00651322  0.62965022  0.61925206  1
  O  O92  1  0.74353963  0.62872356  0.61738048  1
  O  O93  1  0.00650675  0.37114438  0.88120933  1
  O  O94  1  0.74320116  0.37037679  0.88046221  1
  O  O95  1  0.12441261  0.38767232  0.61953941  1
  O  O96  1  0.87598920  0.37045302  0.61769414  1
  O  O97  1  0.76330409  0.11418437  0.13382235  1
  O  O98  1  0.87569329  0.13007178  0.87320575  1
  O  O99  1  0.87342260  0.88746787  0.13722863  1
  O  O100  1  0.01483839  0.88514641  0.86245638  1
  O  O101  1  0.73579395  0.88577200  0.86072795  1
  O  O102  1  0.75646037  0.62872356  0.11738048  1
  O  O103  1  0.75679884  0.37037679  0.38046221  1
  O  O104  1  0.87541276  0.38553530  0.12107885  1
  O  O105  1  0.62401080  0.37045302  0.11769414  1
  O  O106  1  0.62430671  0.13007178  0.37320575  1
  O  O107  1  0.62657740  0.88746787  0.63722863  1
  O  O108  1  0.76420605  0.88577200  0.36072795  1
  O  O109  1  0.62458724  0.38553530  0.62107885  1
