# generated using pymatgen
data_Na2ScPCO7
_symmetry_space_group_name_H-M   'P 1'
_cell_length_a   6.67148219
_cell_length_b   5.18905204
_cell_length_c   9.00224744
_cell_angle_alpha   90.03434090
_cell_angle_beta   90.00000000
_cell_angle_gamma   90.00000000
_symmetry_Int_Tables_number   1
_chemical_formula_structural   Na2ScPCO7
_chemical_formula_sum   'Na4 Sc2 P2 C2 O14'
_cell_volume   311.64576202
_cell_formula_units_Z   2
loop_
 _symmetry_equiv_pos_site_id
 _symmetry_equiv_pos_as_xyz
  1  'x, y, z'
loop_
 _atom_site_type_symbol
 _atom_site_label
 _atom_site_symmetry_multiplicity
 _atom_site_fract_x
 _atom_site_fract_y
 _atom_site_fract_z
 _atom_site_occupancy
  Na  Na0  1  0.49637305  0.23864993  0.77850845  1
  Na  Na1  1  0.00362695  0.23864993  0.77850845  1
  Na  Na2  1  0.50362695  0.76135007  0.22149155  1
  Na  Na3  1  0.99637305  0.76135007  0.22149155  1
  Sc  Sc4  1  0.75000000  0.78763748  0.63928785  1
  Sc  Sc5  1  0.25000000  0.21236252  0.36071215  1
  P  P6  1  0.25000000  0.70901380  0.57609412  1
  P  P7  1  0.75000000  0.29098620  0.42390588  1
  C  C8  1  0.75000000  0.72809163  0.92235264  1
  C  C9  1  0.25000000  0.27190837  0.07764736  1
  O  O10  1  0.25000000  0.30944896  0.94053036  1
  O  O11  1  0.75000000  0.95599434  0.86093705  1
  O  O12  1  0.75000000  0.53766840  0.82503484  1
  O  O13  1  0.06207515  0.80070309  0.65711442  1
  O  O14  1  0.43792485  0.80070309  0.65711442  1
  O  O15  1  0.75000000  0.18096994  0.58361876  1
  O  O16  1  0.25000000  0.41075735  0.56484086  1
  O  O17  1  0.75000000  0.58924265  0.43515914  1
  O  O18  1  0.25000000  0.81903006  0.41638124  1
  O  O19  1  0.56207515  0.19929691  0.34288558  1
  O  O20  1  0.93792485  0.19929691  0.34288558  1
  O  O21  1  0.25000000  0.46233160  0.17496516  1
  O  O22  1  0.25000000  0.04400566  0.13906295  1
  O  O23  1  0.75000000  0.69055104  0.05946964  1
