# generated using pymatgen
data_CaPbI4
_symmetry_space_group_name_H-M   'P 1'
_cell_length_a   4.58717734
_cell_length_b   14.85137176
_cell_length_c   15.86509859
_cell_angle_alpha   90.00000000
_cell_angle_beta   90.00000000
_cell_angle_gamma   90.00000000
_symmetry_Int_Tables_number   1
_chemical_formula_structural   CaPbI4
_chemical_formula_sum   'Ca4 Pb4 I16'
_cell_volume   1080.82373936
_cell_formula_units_Z   4
loop_
 _symmetry_equiv_pos_site_id
 _symmetry_equiv_pos_as_xyz
  1  'x, y, z'
loop_
 _atom_site_type_symbol
 _atom_site_label
 _atom_site_symmetry_multiplicity
 _atom_site_fract_x
 _atom_site_fract_y
 _atom_site_fract_z
 _atom_site_occupancy
  Ca  Ca0  1  0.00000000  -0.00079132  0.01687552  1
  Ca  Ca1  1  -0.00000000  0.49719508  0.23037572  1
  Ca  Ca2  1  0.50000000  0.49920868  0.98312448  1
  Ca  Ca3  1  0.50000000  0.99719508  0.76962428  1
  Pb  Pb4  1  0.00000000  0.99698689  0.51955555  1
  Pb  Pb5  1  -0.00000000  0.49613027  0.73378861  1
  Pb  Pb6  1  0.50000000  0.49698689  0.48044445  1
  Pb  Pb7  1  0.50000000  0.99613027  0.26621139  1
  I  I8  1  -0.00000000  0.12211017  0.35025668  1
  I  I9  1  -0.00000000  0.38124382  0.06468204  1
  I  I10  1  0.00000000  0.11570005  0.85112523  1
  I  I11  1  -0.00000000  0.37100815  0.56428801  1
  I  I12  1  -0.00000000  0.61994952  0.39180863  1
  I  I13  1  0.00000000  0.87379436  0.17706431  1
  I  I14  1  -0.00000000  0.87687198  0.69056858  1
  I  I15  1  -0.00000000  0.61861602  0.90273245  1
  I  I16  1  0.50000000  0.11861602  0.09726755  1
  I  I17  1  0.50000000  0.37687198  0.30943142  1
  I  I18  1  0.50000000  0.11994952  0.60819137  1
  I  I19  1  0.50000000  0.88124382  0.93531796  1
  I  I20  1  0.50000000  0.61570005  0.14887477  1
  I  I21  1  0.50000000  0.87100815  0.43571199  1
  I  I22  1  0.50000000  0.62211017  0.64974332  1
  I  I23  1  0.50000000  0.37379436  0.82293569  1
