# generated using pymatgen
data_BaO2
_symmetry_space_group_name_H-M   'P 1'
_cell_length_a   7.74548268
_cell_length_b   7.84095364
_cell_length_c   8.17801919
_cell_angle_alpha   60.44389011
_cell_angle_beta   90.00000000
_cell_angle_gamma   90.00000000
_symmetry_Int_Tables_number   1
_chemical_formula_structural   BaO2
_chemical_formula_sum   'Ba8 O16'
_cell_volume   432.03742872
_cell_formula_units_Z   8
loop_
 _symmetry_equiv_pos_site_id
 _symmetry_equiv_pos_as_xyz
  1  'x, y, z'
loop_
 _atom_site_type_symbol
 _atom_site_label
 _atom_site_symmetry_multiplicity
 _atom_site_fract_x
 _atom_site_fract_y
 _atom_site_fract_z
 _atom_site_occupancy
  Ba  Ba0  1  0.14449732  0.49261463  0.68802280  1
  Ba  Ba1  1  0.35550268  0.49261463  0.18802280  1
  Ba  Ba2  1  0.85550268  0.50738537  0.31197720  1
  Ba  Ba3  1  0.64449732  0.50738537  0.81197720  1
  Ba  Ba4  1  0.01102882  0.95785586  0.76997686  1
  Ba  Ba5  1  0.48897118  0.95785586  0.26997686  1
  Ba  Ba6  1  0.98897118  0.04214414  0.23002314  1
  Ba  Ba7  1  0.51102882  0.04214414  0.73002314  1
  O  O8  1  0.88977554  0.77589311  0.59594282  1
  O  O9  1  0.61022446  0.77589311  0.09594282  1
  O  O10  1  0.11022446  0.22410689  0.40405718  1
  O  O11  1  0.38977554  0.22410689  0.90405718  1
  O  O12  1  0.81303911  0.27782589  0.69099221  1
  O  O13  1  0.68696089  0.27782589  0.19099221  1
  O  O14  1  0.18696089  0.72217411  0.30900779  1
  O  O15  1  0.31303911  0.72217411  0.80900779  1
  O  O16  1  0.89044082  0.22276141  0.87791224  1
  O  O17  1  0.60955918  0.22276141  0.37791224  1
  O  O18  1  0.10955918  0.77723859  0.12208776  1
  O  O19  1  0.39044082  0.77723859  0.62208776  1
  O  O20  1  0.71671697  0.74429354  0.96048122  1
  O  O21  1  0.78328303  0.74429354  0.46048122  1
  O  O22  1  0.28328303  0.25570646  0.03951878  1
  O  O23  1  0.21671697  0.25570646  0.53951878  1
