# generated using pymatgen
data_Cs3TlO3
_symmetry_space_group_name_H-M   'P 1'
_cell_length_a   7.41885149
_cell_length_b   7.41885149
_cell_length_c   7.42961204
_cell_angle_alpha   83.50467494
_cell_angle_beta   83.50467494
_cell_angle_gamma   114.21141232
_symmetry_Int_Tables_number   1
_chemical_formula_structural   Cs3TlO3
_chemical_formula_sum   'Cs6 Tl2 O6'
_cell_volume   364.77157557
_cell_formula_units_Z   2
loop_
 _symmetry_equiv_pos_site_id
 _symmetry_equiv_pos_as_xyz
  1  'x, y, z'
loop_
 _atom_site_type_symbol
 _atom_site_label
 _atom_site_symmetry_multiplicity
 _atom_site_fract_x
 _atom_site_fract_y
 _atom_site_fract_z
 _atom_site_occupancy
  Cs  Cs0  1  0.63403348  0.63403348  0.15632266  1
  Cs  Cs1  1  0.80378983  0.19621017  -0.00000000  1
  Cs  Cs2  1  0.19621017  0.80378983  -0.00000000  1
  Cs  Cs3  1  0.74372690  0.25627310  0.50000000  1
  Cs  Cs4  1  0.25627310  0.74372690  0.50000000  1
  Cs  Cs5  1  0.36596652  0.36596652  0.84367734  1
  Tl  Tl6  1  0.81990368  0.81990368  0.65183524  1
  Tl  Tl7  1  0.18009632  0.18009632  0.34816476  1
  O  O8  1  0.90296160  0.90296160  0.34475095  1
  O  O9  1  0.55501318  0.83971497  0.77356435  1
  O  O10  1  0.83971497  0.55501318  0.77356435  1
  O  O11  1  0.16028503  0.44498682  0.22643565  1
  O  O12  1  0.44498682  0.16028503  0.22643565  1
  O  O13  1  0.09703840  0.09703840  0.65524905  1
