# generated using pymatgen
data_Ca2HfO4
_symmetry_space_group_name_H-M   'P 1'
_cell_length_a   5.71732837
_cell_length_b   9.83440401
_cell_length_c   3.25971115
_cell_angle_alpha   90.00000000
_cell_angle_beta   90.00000000
_cell_angle_gamma   90.00000000
_symmetry_Int_Tables_number   1
_chemical_formula_structural   Ca2HfO4
_chemical_formula_sum   'Ca4 Hf2 O8'
_cell_volume   183.28220455
_cell_formula_units_Z   2
loop_
 _symmetry_equiv_pos_site_id
 _symmetry_equiv_pos_as_xyz
  1  'x, y, z'
loop_
 _atom_site_type_symbol
 _atom_site_label
 _atom_site_symmetry_multiplicity
 _atom_site_fract_x
 _atom_site_fract_y
 _atom_site_fract_z
 _atom_site_occupancy
  Ca  Ca0  1  0.06639163  0.31933357  0.50000000  1
  Ca  Ca1  1  0.43360837  0.81933357  0.50000000  1
  Ca  Ca2  1  0.56639163  0.18066643  0.50000000  1
  Ca  Ca3  1  0.93360837  0.68066643  0.50000000  1
  Hf  Hf4  1  -0.00000000  0.00000000  0.00000000  1
  Hf  Hf5  1  0.50000000  0.50000000  0.00000000  1
  O  O6  1  0.13798019  0.80738734  -0.00000000  1
  O  O7  1  0.22554492  0.04492380  0.50000000  1
  O  O8  1  0.27445508  0.54492380  0.50000000  1
  O  O9  1  0.36201981  0.30738734  0.00000000  1
  O  O10  1  0.63798019  0.69261266  -0.00000000  1
  O  O11  1  0.72554492  0.45507620  0.50000000  1
  O  O12  1  0.77445508  0.95507620  0.50000000  1
  O  O13  1  0.86201981  0.19261266  -0.00000000  1
