# generated using pymatgen
data_Dy2SiO5
_symmetry_space_group_name_H-M   'P 1'
_cell_length_a   7.95264848
_cell_length_b   7.95264848
_cell_length_c   10.38909997
_cell_angle_alpha   61.09743602
_cell_angle_beta   61.09743602
_cell_angle_gamma   49.89545183
_symmetry_Int_Tables_number   1
_chemical_formula_structural   Dy2SiO5
_chemical_formula_sum   'Dy8 Si4 O20'
_cell_volume   425.20608054
_cell_formula_units_Z   4
loop_
 _symmetry_equiv_pos_site_id
 _symmetry_equiv_pos_as_xyz
  1  'x, y, z'
loop_
 _atom_site_type_symbol
 _atom_site_label
 _atom_site_symmetry_multiplicity
 _atom_site_fract_x
 _atom_site_fract_y
 _atom_site_fract_z
 _atom_site_occupancy
  Dy  Dy0  1  0.76758251  0.51410437  0.16591641  1
  Dy  Dy1  1  0.21840417  0.70808888  0.46462377  1
  Dy  Dy2  1  0.29191112  0.78159583  0.03537623  1
  Dy  Dy3  1  0.51410437  0.76758251  0.66591641  1
  Dy  Dy4  1  0.48589563  0.23241749  0.33408359  1
  Dy  Dy5  1  0.70808888  0.21840417  0.96462377  1
  Dy  Dy6  1  0.78159583  0.29191112  0.53537623  1
  Dy  Dy7  1  0.23241749  0.48589563  0.83408359  1
  Si  Si8  1  0.91003476  0.72742580  0.30893463  1
  Si  Si9  1  0.72742580  0.91003476  0.80893463  1
  Si  Si10  1  0.27257420  0.08996524  0.19106537  1
  Si  Si11  1  0.08996524  0.27257420  0.69106537  1
  O  O12  1  0.73452614  0.86512423  0.44073947  1
  O  O13  1  0.90931882  0.91283852  0.14402059  1
  O  O14  1  0.84978810  0.55765510  0.32573718  1
  O  O15  1  0.86512423  0.73452614  0.94073947  1
  O  O16  1  0.91283852  0.90931882  0.64402059  1
  O  O17  1  0.40797990  0.82900130  0.18082546  1
  O  O18  1  0.55765510  0.84978810  0.82573718  1
  O  O19  1  0.57809424  0.38489880  0.39865915  1
  O  O20  1  0.61510120  0.42190576  0.10134085  1
  O  O21  1  0.82900130  0.40797990  0.68082546  1
  O  O22  1  0.17099870  0.59202010  0.31917454  1
  O  O23  1  0.38489880  0.57809424  0.89865915  1
  O  O24  1  0.42190576  0.61510120  0.60134085  1
  O  O25  1  0.44234490  0.15021190  0.17426282  1
  O  O26  1  0.59202010  0.17099870  0.81917454  1
  O  O27  1  0.08716148  0.09068118  0.35597941  1
  O  O28  1  0.13487577  0.26547386  0.05926053  1
  O  O29  1  0.15021190  0.44234490  0.67426282  1
  O  O30  1  0.09068118  0.08716148  0.85597941  1
  O  O31  1  0.26547386  0.13487577  0.55926053  1
