# generated using pymatgen
data_CsAu(SO4)2
_symmetry_space_group_name_H-M   'P 1'
_cell_length_a   9.30700500
_cell_length_b   9.24685600
_cell_length_c   10.55066449
_cell_angle_alpha   68.58945725
_cell_angle_beta   90.00000000
_cell_angle_gamma   90.00000000
_symmetry_Int_Tables_number   1
_chemical_formula_structural   CsAu(SO4)2
_chemical_formula_sum   'Cs4 Au4 S8 O32'
_cell_volume   845.33382226
_cell_formula_units_Z   4
loop_
 _symmetry_equiv_pos_site_id
 _symmetry_equiv_pos_as_xyz
  1  'x, y, z'
loop_
 _atom_site_type_symbol
 _atom_site_label
 _atom_site_symmetry_multiplicity
 _atom_site_fract_x
 _atom_site_fract_y
 _atom_site_fract_z
 _atom_site_occupancy
  Cs  Cs0  1  0.86166900  0.38245200  0.75835600  1
  Cs  Cs1  1  0.36409900  0.11399900  0.24530200  1
  Cs  Cs2  1  0.14528200  0.61508400  0.24262800  1
  Cs  Cs3  1  0.64232800  0.88662000  0.75199500  1
  Au  Au4  1  0.64727900  0.62877300  0.28834800  1
  Au  Au5  1  0.85037800  0.13141300  0.28960900  1
  Au  Au6  1  0.14231100  0.86166400  0.71338200  1
  Au  Au7  1  0.35574300  0.36138400  0.71423800  1
  S  S8  1  0.25440700  0.53577300  0.90097900  1
  S  S9  1  0.52390100  0.30326100  0.47596700  1
  S  S10  1  0.23943000  0.04186900  0.89772900  1
  S  S11  1  0.74434400  0.46072700  0.10259400  1
  S  S12  1  0.02891200  0.20095500  0.52311300  1
  S  S13  1  0.97556400  0.80690000  0.47511400  1
  S  S14  1  0.75453200  0.95515700  0.10133000  1
  S  S15  1  0.47002700  0.69741800  0.53000400  1
  O  O16  1  0.29068800  0.95796100  0.80374800  1
  O  O17  1  0.50358000  0.74290200  0.37538800  1
  O  O18  1  0.64876900  0.43480000  0.45083800  1
  O  O19  1  0.49611700  0.25647200  0.63117100  1
  O  O20  1  0.00676700  0.75062100  0.63370900  1
  O  O21  1  0.77145700  0.56654900  0.96102300  1
  O  O22  1  0.79137700  0.54092800  0.20215000  1
  O  O23  1  0.59863000  0.39311200  0.13914000  1
  O  O24  1  0.09658900  0.32987800  0.54241400  1
  O  O25  1  0.14138400  0.06921500  0.54252500  1
  O  O26  1  0.70616800  0.03298300  0.19866900  1
  O  O27  1  0.59418600  0.16353800  0.46701500  1
  O  O28  1  0.26640100  0.93206200  0.03731300  1
  O  O29  1  0.35059000  0.56565300  0.54868800  1
  O  O30  1  0.10157400  0.10585600  0.86050800  1
  O  O31  1  0.09940600  0.87005300  0.38580200  1
  O  O32  1  0.89680200  0.89747600  0.13764000  1
  O  O33  1  0.20772300  0.46185300  0.79589200  1
  O  O34  1  0.63810900  0.83118700  0.12449000  1
  O  O35  1  0.99543200  0.24323200  0.36884300  1
  O  O36  1  0.40055500  0.36798200  0.39057200  1
  O  O37  1  0.59122400  0.62820100  0.61282400  1
  O  O38  1  0.85226500  0.92889900  0.45903300  1
  O  O39  1  0.36100200  0.16934100  0.87513900  1
  O  O40  1  0.40415200  0.82966000  0.53452500  1
  O  O41  1  0.23746100  0.43375600  0.03817600  1
  O  O42  1  0.39615200  0.60954900  0.86286500  1
  O  O43  1  0.72904400  0.06319000  0.96244000  1
  O  O44  1  0.90677300  0.66215600  0.46288700  1
  O  O45  1  0.85915300  0.33710100  0.11629300  1
  O  O46  1  0.14514500  0.67061000  0.87969300  1
  O  O47  1  0.90557000  0.13221800  0.60714800  1
