# generated using pymatgen
data_KLi7(H2N)8
_symmetry_space_group_name_H-M   'P 1'
_cell_length_a   23.19346611
_cell_length_b   23.19346611
_cell_length_c   23.19346611
_cell_angle_alpha   161.91411826
_cell_angle_beta   161.91411826
_cell_angle_gamma   25.68579434
_symmetry_Int_Tables_number   1
_chemical_formula_structural   KLi7(H2N)8
_chemical_formula_sum   'K4 Li28 H64 N32'
_cell_volume   1202.04055011
_cell_formula_units_Z   4
loop_
 _symmetry_equiv_pos_site_id
 _symmetry_equiv_pos_as_xyz
  1  'x, y, z'
loop_
 _atom_site_type_symbol
 _atom_site_label
 _atom_site_symmetry_multiplicity
 _atom_site_fract_x
 _atom_site_fract_y
 _atom_site_fract_z
 _atom_site_occupancy
  K  K0  1  0.50000000  0.00000000  0.00000000  1
  K  K1  1  0.50000000  0.50000000  0.50000000  1
  K  K2  1  0.00000000  0.00000000  0.00000000  1
  K  K3  1  0.50000000  0.00000000  0.50000000  1
  Li  Li4  1  0.12668000  0.87668000  0.25000000  1
  Li  Li5  1  0.37668000  0.62668000  0.75000000  1
  Li  Li6  1  0.87332000  0.12332000  0.75000000  1
  Li  Li7  1  0.62332000  0.37332000  0.25000000  1
  Li  Li8  1  0.43144100  0.18144100  0.25000000  1
  Li  Li9  1  0.68144100  0.93144100  0.75000000  1
  Li  Li10  1  0.56855900  0.81855900  0.75000000  1
  Li  Li11  1  0.31855900  0.06855900  0.25000000  1
  Li  Li12  1  0.18377800  0.93377800  0.25000000  1
  Li  Li13  1  0.43377800  0.68377800  0.75000000  1
  Li  Li14  1  0.81622200  0.06622200  0.75000000  1
  Li  Li15  1  0.56622200  0.31622200  0.25000000  1
  Li  Li16  1  0.07038600  0.82038600  0.25000000  1
  Li  Li17  1  0.32038600  0.57038600  0.75000000  1
  Li  Li18  1  0.92961400  0.17961400  0.75000000  1
  Li  Li19  1  0.67961400  0.42961400  0.25000000  1
  Li  Li20  1  0.93039900  0.68039900  0.25000000  1
  Li  Li21  1  0.18039900  0.43039900  0.75000000  1
  Li  Li22  1  0.06960100  0.31960100  0.75000000  1
  Li  Li23  1  0.81960100  0.56960100  0.25000000  1
  Li  Li24  1  0.05966700  0.80975800  0.72827400  1
  Li  Li25  1  0.58148400  0.33139300  0.77172600  1
  Li  Li26  1  0.83139300  0.55966700  0.74990900  1
  Li  Li27  1  0.30975800  0.08148400  0.75009100  1
  Li  Li28  1  0.94033300  0.19024200  0.27172600  1
  Li  Li29  1  0.41851600  0.66860700  0.22827400  1
  Li  Li30  1  0.16860700  0.44033300  0.25009100  1
  Li  Li31  1  0.69024200  0.91851600  0.24990900  1
  H  H32  1  0.45164600  0.93677300  0.11258900  1
  H  H33  1  0.32418400  0.33905700  0.38741100  1
  H  H34  1  0.83905700  0.95164600  0.01487400  1
  H  H35  1  0.43677300  0.82418400  0.48512600  1
  H  H36  1  0.54835400  0.06322700  0.88741100  1
  H  H37  1  0.67581600  0.66094300  0.61258900  1
  H  H38  1  0.16094300  0.04835400  0.98512600  1
  H  H39  1  0.56322700  0.17581600  0.51487400  1
  H  H40  1  0.28839100  0.93104500  0.90453800  1
  H  H41  1  0.52650800  0.38385300  0.59546200  1
  H  H42  1  0.88385300  0.78839100  0.85734600  1
  H  H43  1  0.43104500  0.02650800  0.64265400  1
  H  H44  1  0.71160900  0.06895500  0.09546200  1
  H  H45  1  0.47349200  0.61614700  0.40453800  1
  H  H46  1  0.11614700  0.21160900  0.14265400  1
  H  H47  1  0.56895500  0.97349200  0.35734600  1
  H  H48  1  0.25675800  0.65731600  0.96219000  1
  H  H49  1  0.19512500  0.29456800  0.53781000  1
  H  H50  1  0.79456800  0.75675800  0.09944200  1
  H  H51  1  0.15731600  0.69512500  0.40055800  1
  H  H52  1  0.74324200  0.34268400  0.03781000  1
  H  H53  1  0.80487500  0.70543200  0.46219000  1
  H  H54  1  0.20543200  0.24324200  0.90055800  1
  H  H55  1  0.84268400  0.30487500  0.59944200  1
  H  H56  1  0.07023100  0.69936300  0.85967700  1
  H  H57  1  0.33968600  0.21055400  0.64032300  1
  H  H58  1  0.71055400  0.57023100  0.87086800  1
  H  H59  1  0.19936300  0.83968600  0.62913200  1
  H  H60  1  0.92976900  0.30063700  0.14032300  1
  H  H61  1  0.66031400  0.78944600  0.35967700  1
  H  H62  1  0.28944600  0.42976900  0.12913200  1
  H  H63  1  0.80063700  0.16031400  0.37086800  1
  H  H64  1  0.78358800  0.42706600  0.90850300  1
  H  H65  1  0.01856400  0.87508500  0.59149700  1
  H  H66  1  0.37508500  0.28358800  0.85652100  1
  H  H67  1  0.92706600  0.51856400  0.64347900  1
  H  H68  1  0.21641200  0.57293400  0.09149700  1
  H  H69  1  0.98143600  0.12491500  0.40850300  1
  H  H70  1  0.62491500  0.71641200  0.14347900  1
  H  H71  1  0.07293400  0.48143600  0.35652100  1
  H  H72  1  0.96389000  0.43212500  0.12574100  1
  H  H73  1  0.80638400  0.83814900  0.37425900  1
  H  H74  1  0.33814900  0.46389000  0.03176500  1
  H  H75  1  0.93212500  0.30638400  0.46823500  1
  H  H76  1  0.03611000  0.56787500  0.87425900  1
  H  H77  1  0.19361600  0.16185100  0.62574100  1
  H  H78  1  0.66185100  0.53611000  0.96823500  1
  H  H79  1  0.06787500  0.69361600  0.53176500  1
  H  H80  1  0.68820100  0.29505500  0.03665400  1
  H  H81  1  0.75840100  0.65154700  0.46334600  1
  H  H82  1  0.15154700  0.18820100  0.89314600  1
  H  H83  1  0.79505500  0.25840100  0.60685400  1
  H  H84  1  0.31179900  0.70494500  0.96334600  1
  H  H85  1  0.24159900  0.34845300  0.53665400  1
  H  H86  1  0.84845300  0.81179900  0.10685400  1
  H  H87  1  0.20494500  0.74159900  0.39314600  1
  H  H88  1  0.84662000  0.15617500  0.07358300  1
  H  H89  1  0.58259200  0.77303600  0.42641700  1
  H  H90  1  0.27303600  0.34662000  0.19044500  1
  H  H91  1  0.65617500  0.08259200  0.30955500  1
  H  H92  1  0.15338000  0.84382500  0.92641700  1
  H  H93  1  0.41740800  0.22696400  0.57358300  1
  H  H94  1  0.72696400  0.65338000  0.80955500  1
  H  H95  1  0.34382500  0.91740800  0.69044500  1
  N  N96  1  0.42447900  0.89551500  0.00587700  1
  N  N97  1  0.38963700  0.41860200  0.49412300  1
  N  N98  1  0.91860200  0.92447900  0.02896400  1
  N  N99  1  0.39551500  0.88963700  0.47103600  1
  N  N100  1  0.57552100  0.10448500  0.99412300  1
  N  N101  1  0.61036300  0.58139800  0.50587700  1
  N  N102  1  0.08139800  0.07552100  0.97103600  1
  N  N103  1  0.60448500  0.11036300  0.52896400  1
  N  N104  1  0.21297800  0.70485700  0.00523000  1
  N  N105  1  0.19962800  0.20774900  0.49477000  1
  N  N106  1  0.70774900  0.71297800  0.00812100  1
  N  N107  1  0.20485700  0.69962800  0.49187900  1
  N  N108  1  0.78702200  0.29514300  0.99477000  1
  N  N109  1  0.80037200  0.79225100  0.50523000  1
  N  N110  1  0.29225100  0.28702200  0.99187900  1
  N  N111  1  0.79514300  0.30037200  0.50812100  1
  N  N112  1  0.92070900  0.39170300  0.00580100  1
  N  N113  1  0.88590200  0.91490800  0.49419900  1
  N  N114  1  0.41490800  0.42070900  0.02900600  1
  N  N115  1  0.89170300  0.38590200  0.47099400  1
  N  N116  1  0.07929100  0.60829700  0.99419900  1
  N  N117  1  0.11409800  0.08509200  0.50580100  1
  N  N118  1  0.58509200  0.57929100  0.97099400  1
  N  N119  1  0.10829700  0.61409800  0.52900600  1
  N  N120  1  0.71976300  0.20223100  0.01041100  1
  N  N121  1  0.69182000  0.70935200  0.48958900  1
  N  N122  1  0.20935200  0.21976300  0.01753200  1
  N  N123  1  0.70223100  0.19182000  0.48246800  1
  N  N124  1  0.28023700  0.79776900  0.98958900  1
  N  N125  1  0.30818000  0.29064800  0.51041100  1
  N  N126  1  0.79064800  0.78023700  0.98246800  1
  N  N127  1  0.29776900  0.80818000  0.51753200  1
