# generated using pymatgen
data_Co2As2O5
_symmetry_space_group_name_H-M   'P 1'
_cell_length_a   6.21437533
_cell_length_b   9.26075105
_cell_length_c   9.25076915
_cell_angle_alpha   66.00627400
_cell_angle_beta   82.21833021
_cell_angle_gamma   78.98168048
_symmetry_Int_Tables_number   1
_chemical_formula_structural   Co2As2O5
_chemical_formula_sum   'Co8 As8 O20'
_cell_volume   476.42236940
_cell_formula_units_Z   4
loop_
 _symmetry_equiv_pos_site_id
 _symmetry_equiv_pos_as_xyz
  1  'x, y, z'
loop_
 _atom_site_type_symbol
 _atom_site_label
 _atom_site_symmetry_multiplicity
 _atom_site_fract_x
 _atom_site_fract_y
 _atom_site_fract_z
 _atom_site_occupancy
  Co  Co0  1  0.32498977  0.26651617  0.45454476  1
  Co  Co1  1  0.14301454  0.94455451  0.63011401  1
  Co  Co2  1  0.60045665  0.41145945  0.15426827  1
  Co  Co3  1  0.89935076  0.60897137  0.85082465  1
  Co  Co4  1  0.10064924  0.39102863  0.14917535  1
  Co  Co5  1  0.39954335  0.58854055  0.84573173  1
  Co  Co6  1  0.85698546  0.05544549  0.36988599  1
  Co  Co7  1  0.67501023  0.73348383  0.54545524  1
  As  As8  1  0.78649779  0.39027681  0.49096066  1
  As  As9  1  0.26312431  0.27940075  0.83215796  1
  As  As10  1  0.38444133  0.03116541  0.25158185  1
  As  As11  1  0.73687569  0.72059925  0.16784204  1
  As  As12  1  0.21350221  0.60972319  0.50903934  1
  As  As13  1  0.77061553  0.22117437  0.98869452  1
  As  As14  1  0.61555867  0.96883459  0.74841815  1
  As  As15  1  0.22938447  0.77882563  0.01130548  1
  O  O16  1  0.82497773  0.02970250  0.59259154  1
  O  O17  1  0.40905402  0.63575981  0.61548197  1
  O  O18  1  0.97396413  0.66313165  0.61285018  1
  O  O19  1  0.76919974  0.60985432  0.37789686  1
  O  O20  1  0.82701845  0.56660960  0.09272390  1
  O  O21  1  0.62614833  0.94091253  0.35951022  1
  O  O22  1  0.37385167  0.05908747  0.64048978  1
  O  O23  1  0.87686718  0.23102220  0.15779289  1
  O  O24  1  0.02603587  0.33686835  0.38714982  1
  O  O25  1  0.12313282  0.76897780  0.84220711  1
  O  O26  1  0.17502227  0.97029750  0.40740846  1
  O  O27  1  0.01578827  0.19387629  0.87289890  1
  O  O28  1  0.68753868  0.43516669  0.90600610  1
  O  O29  1  0.37979716  0.23099483  0.23979222  1
  O  O30  1  0.17298155  0.43339040  0.90727610  1
  O  O31  1  0.59094598  0.36424019  0.38451803  1
  O  O32  1  0.62020284  0.76900517  0.76020778  1
  O  O33  1  0.31246132  0.56483331  0.09399390  1
  O  O34  1  0.23080026  0.39014568  0.62210314  1
  O  O35  1  0.98421173  0.80612371  0.12710110  1
