# generated using pymatgen
data_Pr3GaO6
_symmetry_space_group_name_H-M   'P 1'
_cell_length_a   7.45538027
_cell_length_b   7.45538027
_cell_length_c   5.64510467
_cell_angle_alpha   90.00000000
_cell_angle_beta   90.00000000
_cell_angle_gamma   77.18584239
_symmetry_Int_Tables_number   1
_chemical_formula_structural   Pr3GaO6
_chemical_formula_sum   'Pr6 Ga2 O12'
_cell_volume   305.95555402
_cell_formula_units_Z   2
loop_
 _symmetry_equiv_pos_site_id
 _symmetry_equiv_pos_as_xyz
  1  'x, y, z'
loop_
 _atom_site_type_symbol
 _atom_site_label
 _atom_site_symmetry_multiplicity
 _atom_site_fract_x
 _atom_site_fract_y
 _atom_site_fract_z
 _atom_site_occupancy
  Pr  Pr0  1  0.29914901  0.91367637  0.47337638  1
  Pr  Pr1  1  0.08632363  0.70085099  0.97337638  1
  Pr  Pr2  1  0.39563260  0.39563260  0.43015883  1
  Pr  Pr3  1  0.60436740  0.60436740  0.93015883  1
  Pr  Pr4  1  0.91367637  0.29914901  0.47337638  1
  Pr  Pr5  1  0.70085099  0.08632363  0.97337638  1
  Ga  Ga6  1  0.19169274  0.19169274  0.00822471  1
  Ga  Ga7  1  0.80830726  0.80830726  0.50822471  1
  O  O8  1  0.35349656  0.67208956  0.20356282  1
  O  O9  1  0.32791044  0.64650344  0.70356282  1
  O  O10  1  0.10671829  0.41324515  0.17300173  1
  O  O11  1  0.58675485  0.89328171  0.67300173  1
  O  O12  1  0.04270657  0.04270657  0.13640375  1
  O  O13  1  0.21503294  0.21503294  0.68412985  1
  O  O14  1  0.95729343  0.95729343  0.63640375  1
  O  O15  1  0.78496706  0.78496706  0.18412985  1
  O  O16  1  0.41324515  0.10671829  0.17300173  1
  O  O17  1  0.89328171  0.58675485  0.67300173  1
  O  O18  1  0.67208956  0.35349656  0.20356282  1
  O  O19  1  0.64650344  0.32791044  0.70356282  1
