# generated using pymatgen
data_BaYI5
_symmetry_space_group_name_H-M   'P 1'
_cell_length_a   7.78890580
_cell_length_b   8.58699229
_cell_length_c   18.96960623
_cell_angle_alpha   90.00000000
_cell_angle_beta   90.00000000
_cell_angle_gamma   90.00000000
_symmetry_Int_Tables_number   1
_chemical_formula_structural   BaYI5
_chemical_formula_sum   'Ba4 Y4 I20'
_cell_volume   1268.74937214
_cell_formula_units_Z   4
loop_
 _symmetry_equiv_pos_site_id
 _symmetry_equiv_pos_as_xyz
  1  'x, y, z'
loop_
 _atom_site_type_symbol
 _atom_site_label
 _atom_site_symmetry_multiplicity
 _atom_site_fract_x
 _atom_site_fract_y
 _atom_site_fract_z
 _atom_site_occupancy
  Ba  Ba0  1  0.76912116  0.66233685  0.66922058  1
  Ba  Ba1  1  0.26912116  0.83766315  0.33077942  1
  Ba  Ba2  1  0.73087884  0.33766315  0.16922058  1
  Ba  Ba3  1  0.23087884  0.16233685  0.83077942  1
  Y  Y4  1  0.34768992  0.11818655  0.58998713  1
  Y  Y5  1  0.84768992  0.38181345  0.41001287  1
  Y  Y6  1  0.15231008  0.88181345  0.08998713  1
  Y  Y7  1  0.65231008  0.61818655  0.91001287  1
  I  I8  1  0.11618075  0.90591902  0.67178632  1
  I  I9  1  0.57718339  0.09150932  0.71618478  1
  I  I10  1  0.13227430  0.37271383  0.64959173  1
  I  I11  1  0.52957941  0.85069020  0.52420412  1
  I  I12  1  0.61465329  0.37109003  0.54272701  1
  I  I13  1  0.11465329  0.12890997  0.45727299  1
  I  I14  1  0.02957941  0.64930980  0.47579588  1
  I  I15  1  0.63227430  0.12728617  0.35040827  1
  I  I16  1  0.07718339  0.40849068  0.28381522  1
  I  I17  1  0.61618075  0.59408098  0.32821368  1
  I  I18  1  0.38381925  0.09408098  0.17178632  1
  I  I19  1  0.92281661  0.90849068  0.21618478  1
  I  I20  1  0.36772570  0.62728617  0.14959173  1
  I  I21  1  0.97042059  0.14930980  0.02420412  1
  I  I22  1  0.88534671  0.62890997  0.04272701  1
  I  I23  1  0.38534671  0.87109003  0.95727299  1
  I  I24  1  0.47042059  0.35069020  0.97579588  1
  I  I25  1  0.86772570  0.87271383  0.85040827  1
  I  I26  1  0.42281661  0.59150932  0.78381522  1
  I  I27  1  0.88381925  0.40591902  0.82821368  1
