# generated using pymatgen
data_PrAsO4
_symmetry_space_group_name_H-M   'P 1'
_cell_length_a   6.12598876
_cell_length_b   6.12598876
_cell_length_c   6.12598876
_cell_angle_alpha   106.40084762
_cell_angle_beta   106.40084762
_cell_angle_gamma   115.80366589
_symmetry_Int_Tables_number   1
_chemical_formula_structural   PrAsO4
_chemical_formula_sum   'Pr2 As2 O8'
_cell_volume   175.33398131
_cell_formula_units_Z   2
loop_
 _symmetry_equiv_pos_site_id
 _symmetry_equiv_pos_as_xyz
  1  'x, y, z'
loop_
 _atom_site_type_symbol
 _atom_site_label
 _atom_site_symmetry_multiplicity
 _atom_site_fract_x
 _atom_site_fract_y
 _atom_site_fract_z
 _atom_site_occupancy
  Pr  Pr0  1  0.75000000  0.25000000  0.50000000  1
  Pr  Pr1  1  -0.00000000  0.00000000  0.00000000  1
  As  As2  1  0.50000000  0.50000000  0.00000000  1
  As  As3  1  0.25000000  0.75000000  0.50000000  1
  O  O4  1  0.51126186  0.33331189  0.17794997  1
  O  O5  1  0.66668811  0.84463808  0.17794997  1
  O  O6  1  0.08331189  0.40536192  0.32205003  1
  O  O7  1  0.66668811  0.48873814  0.82205003  1
  O  O8  1  0.15536192  0.33331189  0.82205003  1
  O  O9  1  0.23873814  0.91668811  0.32205003  1
  O  O10  1  0.59463808  0.91668811  0.67794997  1
  O  O11  1  0.08331189  0.76126186  0.67794997  1
