# generated using pymatgen
data_Mn(IO3)2
_symmetry_space_group_name_H-M   'P 1'
_cell_length_a   5.38405189
_cell_length_b   5.75090458
_cell_length_c   17.09965019
_cell_angle_alpha   90.00000000
_cell_angle_beta   90.00000000
_cell_angle_gamma   90.00000000
_symmetry_Int_Tables_number   1
_chemical_formula_structural   Mn(IO3)2
_chemical_formula_sum   'Mn4 I8 O24'
_cell_volume   529.45935308
_cell_formula_units_Z   4
loop_
 _symmetry_equiv_pos_site_id
 _symmetry_equiv_pos_as_xyz
  1  'x, y, z'
loop_
 _atom_site_type_symbol
 _atom_site_label
 _atom_site_symmetry_multiplicity
 _atom_site_fract_x
 _atom_site_fract_y
 _atom_site_fract_z
 _atom_site_occupancy
  Mn  Mn0  1  0.70556505  0.16980522  0.09218070  1
  Mn  Mn1  1  0.20556505  0.33019478  0.90781930  1
  Mn  Mn2  1  0.29443495  0.66980522  0.40781930  1
  Mn  Mn3  1  0.79443495  0.83019478  0.59218070  1
  I  I4  1  0.96554953  0.14091303  0.42321912  1
  I  I5  1  0.25054800  0.22430451  0.20823726  1
  I  I6  1  0.75054800  0.27569549  0.79176274  1
  I  I7  1  0.46554953  0.35908697  0.57678088  1
  I  I8  1  0.03445047  0.64091303  0.07678088  1
  I  I9  1  0.74945200  0.72430451  0.29176274  1
  I  I10  1  0.24945200  0.77569549  0.70823726  1
  I  I11  1  0.53445047  0.85908697  0.92321912  1
  O  O12  1  0.10875395  0.00316795  0.33654274  1
  O  O13  1  0.03236014  0.03085021  0.15847183  1
  O  O14  1  0.52005650  0.03321352  0.20399228  1
  O  O15  1  0.44356118  0.10853781  0.98391726  1
  O  O16  1  0.87342954  0.12190774  0.87831294  1
  O  O17  1  0.73461764  0.17791617  0.54913426  1
  O  O18  1  0.23461764  0.32208383  0.45086574  1
  O  O19  1  0.37342954  0.37809226  0.12168706  1
  O  O20  1  0.94356118  0.39146219  0.01608274  1
  O  O21  1  0.02005650  0.46678648  0.79600772  1
  O  O22  1  0.53236014  0.46914979  0.84152817  1
  O  O23  1  0.60875395  0.49683205  0.66345726  1
  O  O24  1  0.89124605  0.50316795  0.16345726  1
  O  O25  1  0.96763986  0.53085021  0.34152817  1
  O  O26  1  0.47994350  0.53321352  0.29600772  1
  O  O27  1  0.55643882  0.60853781  0.51608274  1
  O  O28  1  0.12657046  0.62190774  0.62168706  1
  O  O29  1  0.26538236  0.67791617  0.95086574  1
  O  O30  1  0.76538236  0.82208383  0.04913426  1
  O  O31  1  0.62657046  0.87809226  0.37831294  1
  O  O32  1  0.05643882  0.89146219  0.48391726  1
  O  O33  1  0.97994350  0.96678648  0.70399228  1
  O  O34  1  0.46763986  0.96914979  0.65847183  1
  O  O35  1  0.39124605  0.99683205  0.83654274  1
