# generated using pymatgen
data_Na6Mn2C4SO16
_symmetry_space_group_name_H-M   'P 1'
_cell_length_a   9.84997475
_cell_length_b   9.84997475
_cell_length_c   9.84997475
_cell_angle_alpha   60.00000000
_cell_angle_beta   60.00000000
_cell_angle_gamma   60.00000000
_symmetry_Int_Tables_number   1
_chemical_formula_structural   Na6Mn2C4SO16
_chemical_formula_sum   'Na12 Mn4 C8 S2 O32'
_cell_volume   675.75668972
_cell_formula_units_Z   2
loop_
 _symmetry_equiv_pos_site_id
 _symmetry_equiv_pos_as_xyz
  1  'x, y, z'
loop_
 _atom_site_type_symbol
 _atom_site_label
 _atom_site_symmetry_multiplicity
 _atom_site_fract_x
 _atom_site_fract_y
 _atom_site_fract_z
 _atom_site_occupancy
  Na  Na0  1  0.78524504  0.78524504  0.21475496  1
  Na  Na1  1  0.46475496  0.03524504  0.03524504  1
  Na  Na2  1  0.21475496  0.78524504  0.21475496  1
  Na  Na3  1  0.78524504  0.21475496  0.78524504  1
  Na  Na4  1  0.03524504  0.46475496  0.46475496  1
  Na  Na5  1  0.03524504  0.03524504  0.46475496  1
  Na  Na6  1  0.21475496  0.78524504  0.78524504  1
  Na  Na7  1  0.21475496  0.21475496  0.78524504  1
  Na  Na8  1  0.46475496  0.03524504  0.46475496  1
  Na  Na9  1  0.03524504  0.46475496  0.03524504  1
  Na  Na10  1  0.78524504  0.21475496  0.21475496  1
  Na  Na11  1  0.46475496  0.46475496  0.03524504  1
  Mn  Mn12  1  0.12500000  0.62500000  0.62500000  1
  Mn  Mn13  1  0.62500000  0.62500000  0.62500000  1
  Mn  Mn14  1  0.62500000  0.62500000  0.12500000  1
  Mn  Mn15  1  0.62500000  0.12500000  0.62500000  1
  C  C16  1  0.78853698  0.40382134  0.40382134  1
  C  C17  1  0.40382134  0.78853698  0.40382134  1
  C  C18  1  0.40382134  0.40382134  0.40382134  1
  C  C19  1  0.40382134  0.40382134  0.78853698  1
  C  C20  1  0.84617866  0.84617866  0.46146302  1
  C  C21  1  0.84617866  0.46146302  0.84617866  1
  C  C22  1  0.84617866  0.84617866  0.84617866  1
  C  C23  1  0.46146302  0.84617866  0.84617866  1
  S  S24  1  -0.00000000  -0.00000000  0.00000000  1
  S  S25  1  0.25000000  0.25000000  0.25000000  1
  O  O26  1  0.72665451  0.98660049  0.82637456  1
  O  O27  1  0.46036945  0.82637456  0.98660049  1
  O  O28  1  0.78963055  0.52334549  0.42362544  1
  O  O29  1  0.52334549  0.78963055  0.26339951  1
  O  O30  1  0.78963055  0.26339951  0.52334549  1
  O  O31  1  0.06143667  0.06143667  0.81569098  1
  O  O32  1  0.42362544  0.52334549  0.26339951  1
  O  O33  1  0.06143667  0.06143667  0.06143667  1
  O  O34  1  0.06143667  0.81569098  0.06143667  1
  O  O35  1  0.42362544  0.78963055  0.52334549  1
  O  O36  1  0.26339951  0.78963055  0.42362544  1
  O  O37  1  0.81569098  0.06143667  0.06143667  1
  O  O38  1  0.52334549  0.42362544  0.78963055  1
  O  O39  1  0.26339951  0.42362544  0.52334549  1
  O  O40  1  0.42362544  0.26339951  0.78963055  1
  O  O41  1  0.98660049  0.72665451  0.46036945  1
  O  O42  1  0.26339951  0.52334549  0.78963055  1
  O  O43  1  0.82637456  0.98660049  0.46036945  1
  O  O44  1  0.98660049  0.82637456  0.72665451  1
  O  O45  1  0.72665451  0.82637456  0.46036945  1
  O  O46  1  0.43430902  0.18856333  0.18856333  1
  O  O47  1  0.98660049  0.46036945  0.82637456  1
  O  O48  1  0.82637456  0.46036945  0.72665451  1
  O  O49  1  0.18856333  0.43430902  0.18856333  1
  O  O50  1  0.18856333  0.18856333  0.18856333  1
  O  O51  1  0.82637456  0.72665451  0.98660049  1
  O  O52  1  0.18856333  0.18856333  0.43430902  1
  O  O53  1  0.46036945  0.98660049  0.72665451  1
  O  O54  1  0.72665451  0.46036945  0.98660049  1
  O  O55  1  0.46036945  0.72665451  0.82637456  1
  O  O56  1  0.78963055  0.42362544  0.26339951  1
  O  O57  1  0.52334549  0.26339951  0.42362544  1
