# generated using pymatgen
data_CaPbI6
_symmetry_space_group_name_H-M   'P 1'
_cell_length_a   16.69799108
_cell_length_b   14.71426080
_cell_length_c   11.79542430
_cell_angle_alpha   77.17702152
_cell_angle_beta   59.20836909
_cell_angle_gamma   43.54226445
_symmetry_Int_Tables_number   1
_chemical_formula_structural   CaPbI6
_chemical_formula_sum   'Ca4 Pb4 I24'
_cell_volume   1659.69670411
_cell_formula_units_Z   4
loop_
 _symmetry_equiv_pos_site_id
 _symmetry_equiv_pos_as_xyz
  1  'x, y, z'
loop_
 _atom_site_type_symbol
 _atom_site_label
 _atom_site_symmetry_multiplicity
 _atom_site_fract_x
 _atom_site_fract_y
 _atom_site_fract_z
 _atom_site_occupancy
  Ca  Ca0  1  0.14265233  0.70007929  0.94944200  1
  Ca  Ca1  1  0.30069603  0.04230378  0.10805821  1
  Ca  Ca2  1  0.54755325  0.11007011  0.04258303  1
  Ca  Ca3  1  0.20688303  0.94994738  0.70252468  1
  Pb  Pb4  1  0.06715308  0.67906933  0.68089070  1
  Pb  Pb5  1  0.56939036  0.67636670  0.18185811  1
  Pb  Pb6  1  0.57197687  0.18184022  0.67623877  1
  Pb  Pb7  1  0.57420530  0.67950568  0.67766602  1
  I  I8  1  0.16132702  0.56343438  0.18843746  1
  I  I9  1  0.46205884  0.97618516  0.23175564  1
  I  I10  1  0.27619980  0.86048772  0.28444276  1
  I  I11  1  0.39889706  0.27275163  0.38222714  1
  I  I12  1  0.64885912  0.41338762  0.13637798  1
  I  I13  1  0.35516601  0.49066139  0.66500413  1
  I  I14  1  0.06385356  0.16153544  0.08683708  1
  I  I15  1  0.68485602  0.09032316  0.16305671  1
  I  I16  1  0.48744492  0.66618842  0.49184296  1
  I  I17  1  0.27296158  0.78888067  0.92211876  1
  I  I18  1  0.39026509  0.97240489  0.67134566  1
  I  I19  1  0.80048626  0.13809546  0.41389654  1
  I  I20  1  0.94771773  0.37961630  0.27124335  1
  I  I21  1  0.97753660  0.84950158  0.30428806  1
  I  I22  1  0.83817718  0.59998432  0.44969774  1
  I  I23  1  0.57746744  0.28590063  0.85978067  1
  I  I24  1  0.32802462  0.23415060  0.97699059  1
  I  I25  1  0.75754613  0.89530201  0.76279101  1
  I  I26  1  0.08984387  0.18646746  0.56182562  1
  I  I27  1  0.58463534  0.76136555  0.89436702  1
  I  I28  1  0.11009770  0.45091313  0.60434841  1
  I  I29  1  0.87110701  0.30324041  0.84773686  1
  I  I30  1  0.96465690  0.67279385  0.97388569  1
  I  I31  1  0.01586793  0.92168372  0.79087662  1
