# generated using pymatgen
data_Ca4Ta2O9
_symmetry_space_group_name_H-M   'P 1'
_cell_length_a   5.63830838
_cell_length_b   5.63830775
_cell_length_c   14.74806754
_cell_angle_alpha   90.00002332
_cell_angle_beta   89.99996841
_cell_angle_gamma   120.00003443
_symmetry_Int_Tables_number   1
_chemical_formula_structural   Ca4Ta2O9
_chemical_formula_sum   'Ca8 Ta4 O18'
_cell_volume   406.03474736
_cell_formula_units_Z   2
loop_
 _symmetry_equiv_pos_site_id
 _symmetry_equiv_pos_as_xyz
  1  'x, y, z'
loop_
 _atom_site_type_symbol
 _atom_site_label
 _atom_site_symmetry_multiplicity
 _atom_site_fract_x
 _atom_site_fract_y
 _atom_site_fract_z
 _atom_site_occupancy
  Ca  Ca0  1  0.33333287  0.66666658  0.02444095  1
  Ca  Ca1  1  0.33333335  0.66666664  0.30507939  1
  Ca  Ca2  1  0.33333338  0.66666705  0.80507633  1
  Ca  Ca3  1  0.33333327  0.66666701  0.52443668  1
  Ca  Ca4  1  0.66666639  0.33333295  0.19492112  1
  Ca  Ca5  1  0.66666656  0.33333325  0.69492374  1
  Ca  Ca6  1  0.66666672  0.33333308  0.47555909  1
  Ca  Ca7  1  0.66666702  0.33333386  0.97556382  1
  Ta  Ta8  1  0.00000004  0.00000011  0.14628254  1
  Ta  Ta9  1  0.00000042  0.00000027  0.35371764  1
  Ta  Ta10  1  -0.00000035  -0.00000024  0.64627592  1
  Ta  Ta11  1  -0.00000002  -0.00000002  0.85372393  1
  O  O12  1  -0.00000031  0.73885411  0.74999984  1
  O  O13  1  0.04072055  0.71720857  0.41116871  1
  O  O14  1  0.28279152  0.95928421  0.91116830  1
  O  O15  1  0.04071738  0.32350616  0.91116922  1
  O  O16  1  0.00000044  0.26114955  0.25000013  1
  O  O17  1  0.26114521  0.26114562  0.74999998  1
  O  O18  1  0.28279211  0.32351201  0.41116877  1
  O  O19  1  0.67648853  0.95927990  0.41116870  1
  O  O20  1  0.32351193  0.28279196  0.08883142  1
  O  O21  1  0.26114930  0.00000000  0.24999999  1
  O  O22  1  0.67649252  0.71720808  0.91116833  1
  O  O23  1  0.32350616  0.04071772  0.58883090  1
  O  O24  1  0.71721070  0.67649338  0.58883082  1
  O  O25  1  0.73885093  0.73885097  0.25000006  1
  O  O26  1  0.95927969  0.67648836  0.08883135  1
  O  O27  1  0.71720860  0.04072043  0.08883141  1
  O  O28  1  0.73885410  -0.00000018  0.75000003  1
  O  O29  1  0.95928199  0.28278861  0.58883091  1
