# generated using pymatgen
data_Hf3N2O3
_symmetry_space_group_name_H-M   'P 1'
_cell_length_a   4.01867438
_cell_length_b   5.60342834
_cell_length_c   10.48832682
_cell_angle_alpha   90.00000000
_cell_angle_beta   90.00000000
_cell_angle_gamma   111.01365374
_symmetry_Int_Tables_number   1
_chemical_formula_structural   Hf3N2O3
_chemical_formula_sum   'Hf6 N4 O6'
_cell_volume   220.47271406
_cell_formula_units_Z   2
loop_
 _symmetry_equiv_pos_site_id
 _symmetry_equiv_pos_as_xyz
  1  'x, y, z'
loop_
 _atom_site_type_symbol
 _atom_site_label
 _atom_site_symmetry_multiplicity
 _atom_site_fract_x
 _atom_site_fract_y
 _atom_site_fract_z
 _atom_site_occupancy
  Hf  Hf0  1  0.19179293  0.38358686  0.25000000  1
  Hf  Hf1  1  0.14379781  0.28759762  0.94267023  1
  Hf  Hf2  1  0.14379781  0.28759762  0.55732977  1
  Hf  Hf3  1  0.80820707  0.61641314  0.75000000  1
  Hf  Hf4  1  0.85620219  0.71240238  0.05732977  1
  Hf  Hf5  1  0.85620219  0.71240238  0.44267023  1
  N  N6  1  0.30094723  0.60189446  0.42104945  1
  N  N7  1  0.30094723  0.60189446  0.07895055  1
  N  N8  1  0.69905277  0.39810554  0.57895055  1
  N  N9  1  0.69905277  0.39810554  0.92104945  1
  O  O10  1  0.24831020  0.49661840  0.75000000  1
  O  O11  1  0.04358372  0.08716644  0.11602812  1
  O  O12  1  0.04358372  0.08716644  0.38397188  1
  O  O13  1  0.75168980  0.50338160  0.25000000  1
  O  O14  1  0.95641628  0.91283356  0.88397188  1
  O  O15  1  0.95641628  0.91283356  0.61602812  1
