# generated using pymatgen
data_BaTa4O11
_symmetry_space_group_name_H-M   'P 1'
_cell_length_a   6.32675844
_cell_length_b   6.32675863
_cell_length_c   12.49503401
_cell_angle_alpha   90.00000311
_cell_angle_beta   90.00000591
_cell_angle_gamma   120.00011121
_symmetry_Int_Tables_number   1
_chemical_formula_structural   BaTa4O11
_chemical_formula_sum   'Ba2 Ta8 O22'
_cell_volume   433.14180982
_cell_formula_units_Z   2
loop_
 _symmetry_equiv_pos_site_id
 _symmetry_equiv_pos_as_xyz
  1  'x, y, z'
loop_
 _atom_site_type_symbol
 _atom_site_label
 _atom_site_symmetry_multiplicity
 _atom_site_fract_x
 _atom_site_fract_y
 _atom_site_fract_z
 _atom_site_occupancy
  Ba  Ba0  1  0.33333339  0.66666669  0.75000042  1
  Ba  Ba1  1  0.66666649  0.33333344  0.24999963  1
  Ta  Ta2  1  0.00000076  0.64588293  0.49999995  1
  Ta  Ta3  1  -0.00000036  0.35412999  0.00000018  1
  Ta  Ta4  1  0.33333333  0.66666663  0.25000108  1
  Ta  Ta5  1  0.35411941  0.35411936  0.49999993  1
  Ta  Ta6  1  0.64586780  0.64586771  0.00000013  1
  Ta  Ta7  1  0.35413007  -0.00000076  0.00000011  1
  Ta  Ta8  1  0.66666662  0.33333330  0.74999898  1
  Ta  Ta9  1  0.64588283  0.00000042  0.49999993  1
  O  O10  1  -0.00000016  0.75672381  -0.00000009  1
  O  O11  1  0.07224496  0.63767144  0.34783717  1
  O  O12  1  0.07224689  0.43457644  0.15216301  1
  O  O13  1  0.00000028  0.24327389  0.50000020  1
  O  O14  1  0.36232967  0.92775254  0.15216298  1
  O  O15  1  0.33333345  0.66666680  0.53265731  1
  O  O16  1  0.33333327  0.66666659  0.96734334  1
  O  O17  1  0.56542670  0.92775524  0.34783719  1
  O  O18  1  0.24327796  0.24327784  -0.00000097  1
  O  O19  1  0.36232850  0.43457345  0.34783714  1
  O  O20  1  0.43457349  0.36232851  0.65216328  1
  O  O21  1  0.24327384  0.00000021  0.50000021  1
  O  O22  1  0.56542292  0.63767026  0.15216310  1
  O  O23  1  0.63767036  0.56542307  0.84783675  1
  O  O24  1  0.75672519  0.75672515  0.50000017  1
  O  O25  1  0.43457671  0.07224705  0.84783674  1
  O  O26  1  0.66666663  0.33333324  0.03265651  1
  O  O27  1  0.66666671  0.33333330  0.46734294  1
  O  O28  1  0.63767149  0.07224508  0.65216320  1
  O  O29  1  0.92775531  0.56542681  0.65216319  1
  O  O30  1  0.75672297  -0.00000113  -0.00000055  1
  O  O31  1  0.92775254  0.36232969  0.84783682  1
