# generated using pymatgen
data_BrNO
_symmetry_space_group_name_H-M   'P 1'
_cell_length_a   5.66721300
_cell_length_b   6.77819200
_cell_length_c   8.06500372
_cell_angle_alpha   113.91366595
_cell_angle_beta   90.00000000
_cell_angle_gamma   90.00000000
_symmetry_Int_Tables_number   1
_chemical_formula_structural   BrNO
_chemical_formula_sum   'Br4 N4 O4'
_cell_volume   283.21020902
_cell_formula_units_Z   4
loop_
 _symmetry_equiv_pos_site_id
 _symmetry_equiv_pos_as_xyz
  1  'x, y, z'
loop_
 _atom_site_type_symbol
 _atom_site_label
 _atom_site_symmetry_multiplicity
 _atom_site_fract_x
 _atom_site_fract_y
 _atom_site_fract_z
 _atom_site_occupancy
  Br  Br0  1  0.34267400  0.75159200  0.70650600  1
  Br  Br1  1  0.84267400  0.24840800  0.79349400  1
  Br  Br2  1  0.65732600  0.24840800  0.29349400  1
  Br  Br3  1  0.15732600  0.75159200  0.20650600  1
  N  N4  1  0.84740700  0.68325300  0.37097400  1
  N  N5  1  0.34740700  0.31674700  0.12902600  1
  N  N6  1  0.15259300  0.31674700  0.62902600  1
  N  N7  1  0.65259300  0.68325300  0.87097400  1
  O  O8  1  0.68346800  0.78719400  0.38322100  1
  O  O9  1  0.18346800  0.21280600  0.11677900  1
  O  O10  1  0.31653200  0.21280600  0.61677900  1
  O  O11  1  0.81653200  0.78719400  0.88322100  1
