# generated using pymatgen
data_Ba2GeO4
_symmetry_space_group_name_H-M   'P 1'
_cell_length_a   23.15515108
_cell_length_b   10.55775513
_cell_length_c   6.15039296
_cell_angle_alpha   90.00000000
_cell_angle_beta   90.00000000
_cell_angle_gamma   90.00000000
_symmetry_Int_Tables_number   1
_chemical_formula_structural   Ba2GeO4
_chemical_formula_sum   'Ba24 Ge12 O48'
_cell_volume   1503.56451839
_cell_formula_units_Z   12
loop_
 _symmetry_equiv_pos_site_id
 _symmetry_equiv_pos_as_xyz
  1  'x, y, z'
loop_
 _atom_site_type_symbol
 _atom_site_label
 _atom_site_symmetry_multiplicity
 _atom_site_fract_x
 _atom_site_fract_y
 _atom_site_fract_z
 _atom_site_occupancy
  Ba  Ba0  1  0.99787108  0.29927473  0.78846711  1
  Ba  Ba1  1  0.00212892  0.70072527  0.28846711  1
  Ba  Ba2  1  0.05444363  0.07841227  0.28146223  1
  Ba  Ba3  1  0.11041717  0.57919890  0.76318461  1
  Ba  Ba4  1  0.16905002  0.80398805  0.24449359  1
  Ba  Ba5  1  0.16474553  0.20092491  0.73533192  1
  Ba  Ba6  1  0.22012716  0.42457265  0.23455667  1
  Ba  Ba7  1  0.27987284  0.92457265  0.73455667  1
  Ba  Ba8  1  0.33525447  0.70092491  0.23533192  1
  Ba  Ba9  1  0.33094998  0.30398805  0.74449359  1
  Ba  Ba10  1  0.38958283  0.07919890  0.26318461  1
  Ba  Ba11  1  0.44555637  0.57841227  0.78146223  1
  Ba  Ba12  1  0.49787108  0.20072527  0.78846711  1
  Ba  Ba13  1  0.50212892  0.79927473  0.28846711  1
  Ba  Ba14  1  0.55444363  0.42158773  0.28146223  1
  Ba  Ba15  1  0.61041717  0.92080110  0.76318461  1
  Ba  Ba16  1  0.66905002  0.69601195  0.24449359  1
  Ba  Ba17  1  0.66474553  0.29907509  0.73533192  1
  Ba  Ba18  1  0.72012716  0.07542735  0.23455667  1
  Ba  Ba19  1  0.77987284  0.57542735  0.73455667  1
  Ba  Ba20  1  0.83525447  0.79907509  0.23533192  1
  Ba  Ba21  1  0.83094998  0.19601195  0.74449359  1
  Ba  Ba22  1  0.88958283  0.42080110  0.26318461  1
  Ba  Ba23  1  0.94555637  0.92158773  0.78146223  1
  Ge  Ge24  1  0.07271872  0.41748779  0.25385731  1
  Ge  Ge25  1  0.09437361  0.91685651  0.77956977  1
  Ge  Ge26  1  0.24096908  0.08626815  0.24377470  1
  Ge  Ge27  1  0.25903092  0.58626815  0.74377470  1
  Ge  Ge28  1  0.40562639  0.41685651  0.27956977  1
  Ge  Ge29  1  0.42728128  0.91748779  0.75385731  1
  Ge  Ge30  1  0.57271872  0.08251221  0.25385731  1
  Ge  Ge31  1  0.59437361  0.58314349  0.77956977  1
  Ge  Ge32  1  0.74096908  0.41373185  0.24377470  1
  Ge  Ge33  1  0.75903092  0.91373185  0.74377470  1
  Ge  Ge34  1  0.90562639  0.08314349  0.27956977  1
  Ge  Ge35  1  0.92728128  0.58251221  0.75385731  1
  O  O36  1  0.00047649  0.55624954  0.68148838  1
  O  O37  1  0.05728874  0.06500816  0.82221511  1
  O  O38  1  0.07072556  0.80652433  0.98124479  1
  O  O39  1  0.07347084  0.86002138  0.51849849  1
  O  O40  1  0.08187389  0.30737718  0.47017344  1
  O  O41  1  0.10753375  0.35963126  0.01110004  1
  O  O42  1  0.10873013  0.56355568  0.32000715  1
  O  O43  1  0.16670317  0.06646805  0.30828917  1
  O  O44  1  0.16973048  0.93996978  0.81147701  1
  O  O45  1  0.22419462  0.43821705  0.67917374  1
  O  O46  1  0.22468511  0.63941566  0.98939849  1
  O  O47  1  0.24717450  0.69721991  0.53043428  1
  O  O48  1  0.25282550  0.19721991  0.03043428  1
  O  O49  1  0.27531489  0.13941566  0.48939849  1
  O  O50  1  0.27580538  0.93821705  0.17917374  1
  O  O51  1  0.33026952  0.43996978  0.31147701  1
  O  O52  1  0.33329683  0.56646805  0.80828917  1
  O  O53  1  0.39126987  0.06355568  0.82000715  1
  O  O54  1  0.39246625  0.85963126  0.51110004  1
  O  O55  1  0.41812611  0.80737718  0.97017344  1
  O  O56  1  0.42652916  0.36002138  0.01849849  1
  O  O57  1  0.42927444  0.30652433  0.48124479  1
  O  O58  1  0.44271126  0.56500816  0.32221511  1
  O  O59  1  0.49952351  0.05624954  0.18148838  1
  O  O60  1  0.50047649  0.94375046  0.68148838  1
  O  O61  1  0.55728874  0.43499184  0.82221511  1
  O  O62  1  0.57072556  0.69347567  0.98124479  1
  O  O63  1  0.57347084  0.63997862  0.51849849  1
  O  O64  1  0.58187389  0.19262282  0.47017344  1
  O  O65  1  0.60753375  0.14036874  0.01110004  1
  O  O66  1  0.60873013  0.93644432  0.32000715  1
  O  O67  1  0.66670317  0.43353195  0.30828917  1
  O  O68  1  0.66973048  0.56003022  0.81147701  1
  O  O69  1  0.72419462  0.06178295  0.67917374  1
  O  O70  1  0.72468511  0.86058434  0.98939849  1
  O  O71  1  0.74717450  0.80278009  0.53043428  1
  O  O72  1  0.75282550  0.30278009  0.03043428  1
  O  O73  1  0.77531489  0.36058434  0.48939849  1
  O  O74  1  0.77580538  0.56178295  0.17917374  1
  O  O75  1  0.83026952  0.06003022  0.31147701  1
  O  O76  1  0.83329683  0.93353195  0.80828917  1
  O  O77  1  0.89126987  0.43644432  0.82000715  1
  O  O78  1  0.89246625  0.64036874  0.51110004  1
  O  O79  1  0.91812611  0.69262282  0.97017344  1
  O  O80  1  0.92652916  0.13997862  0.01849849  1
  O  O81  1  0.92927444  0.19347567  0.48124479  1
  O  O82  1  0.94271126  0.93499184  0.32221511  1
  O  O83  1  0.99952351  0.44375046  0.18148838  1
