# generated using pymatgen
data_Na5H3(CO3)4
_symmetry_space_group_name_H-M   'P 1'
_cell_length_a   3.40453221
_cell_length_b   9.99076164
_cell_length_c   15.45663297
_cell_angle_alpha   107.73262795
_cell_angle_beta   95.45983126
_cell_angle_gamma   94.88552754
_symmetry_Int_Tables_number   1
_chemical_formula_structural   Na5H3(CO3)4
_chemical_formula_sum   'Na10 H6 C8 O24'
_cell_volume   494.86380326
_cell_formula_units_Z   2
loop_
 _symmetry_equiv_pos_site_id
 _symmetry_equiv_pos_as_xyz
  1  'x, y, z'
loop_
 _atom_site_type_symbol
 _atom_site_label
 _atom_site_symmetry_multiplicity
 _atom_site_fract_x
 _atom_site_fract_y
 _atom_site_fract_z
 _atom_site_occupancy
  Na  Na0  1  0.21431132  0.32553353  0.95179634  1
  Na  Na1  1  0.78568868  0.67446647  0.04820366  1
  Na  Na2  1  0.18679620  0.81863313  0.90182054  1
  Na  Na3  1  0.81320380  0.18136687  0.09817946  1
  Na  Na4  1  0.81710370  0.28299801  0.72106999  1
  Na  Na5  1  0.18289630  0.71700199  0.27893001  1
  Na  Na6  1  0.57906469  0.78636529  0.69273145  1
  Na  Na7  1  0.42093531  0.21363471  0.30726855  1
  Na  Na8  1  0.22650455  0.25203122  0.52317453  1
  Na  Na9  1  0.77349545  0.74796878  0.47682547  1
  H  H10  1  0.26446202  0.53022542  0.74811489  1
  H  H11  1  0.73553798  0.46977458  0.25188511  1
  H  H12  1  0.50000000  0.50000000  0.50000000  1
  H  H13  1  0.00374533  0.04655264  0.75712151  1
  H  H14  1  0.99625467  0.95344736  0.24287849  1
  H  H15  1  0.50000000  0.00000000  0.50000000  1
  C  C16  1  0.58382196  0.52431908  0.86132534  1
  C  C17  1  0.41617804  0.47568092  0.13867466  1
  C  C18  1  0.86064803  0.53182659  0.62298766  1
  C  C19  1  0.13935197  0.46817341  0.37701234  1
  C  C20  1  0.75928934  0.06357956  0.86982195  1
  C  C21  1  0.24071066  0.93642044  0.13017805  1
  C  C22  1  0.24090353  0.00400133  0.61833145  1
  C  C23  1  0.75909647  0.99599867  0.38166855  1
  O  O24  1  0.71821911  0.44351115  0.90274079  1
  O  O25  1  0.28178089  0.55648885  0.09725921  1
  O  O26  1  0.62853750  0.65775840  0.89113619  1
  O  O27  1  0.37146250  0.34224160  0.10886381  1
  O  O28  1  0.37531449  0.45893221  0.77773172  1
  O  O29  1  0.62468551  0.54106779  0.22226828  1
  O  O30  1  0.05967345  0.61782613  0.69730344  1
  O  O31  1  0.94032655  0.38217387  0.30269656  1
  O  O32  1  0.81667156  0.39863678  0.60557904  1
  O  O33  1  0.18332844  0.60136322  0.39442096  1
  O  O34  1  0.69145119  0.58977881  0.56496239  1
  O  O35  1  0.30854881  0.41022119  0.43503761  1
  O  O36  1  0.68713601  0.14856051  0.94375812  1
  O  O37  1  0.31286399  0.85143949  0.05624188  1
  O  O38  1  0.69553503  0.92984200  0.84573661  1
  O  O39  1  0.30446497  0.07015800  0.15426339  1
  O  O40  1  0.92709954  0.12329790  0.81190489  1
  O  O41  1  0.07290046  0.87670210  0.18809511  1
  O  O42  1  0.11092249  0.93709869  0.67103580  1
  O  O43  1  0.88907751  0.06290131  0.32896420  1
  O  O44  1  0.26008523  0.13728671  0.63734395  1
  O  O45  1  0.73991477  0.86271329  0.36265605  1
  O  O46  1  0.35555958  0.92650054  0.54124878  1
  O  O47  1  0.64444042  0.07349946  0.45875122  1
