# generated using pymatgen
data_Bi2CO5
_symmetry_space_group_name_H-M   'P 1'
_cell_length_a   7.54271676
_cell_length_b   7.52603144
_cell_length_c   3.88086429
_cell_angle_alpha   75.31378321
_cell_angle_beta   74.83772821
_cell_angle_gamma   29.84848858
_symmetry_Int_Tables_number   1
_chemical_formula_structural   Bi2CO5
_chemical_formula_sum   'Bi2 C1 O5'
_cell_volume   105.66694045
_cell_formula_units_Z   1
loop_
 _symmetry_equiv_pos_site_id
 _symmetry_equiv_pos_as_xyz
  1  'x, y, z'
loop_
 _atom_site_type_symbol
 _atom_site_label
 _atom_site_symmetry_multiplicity
 _atom_site_fract_x
 _atom_site_fract_y
 _atom_site_fract_z
 _atom_site_occupancy
  Bi  Bi0  1  0.16625305  0.15652286  0.84347714  1
  Bi  Bi1  1  0.84347714  0.83374695  0.16625305  1
  C  C2  1  0.54762268  0.45237732  0.54762268  1
  O  O3  1  0.78101944  0.21898056  0.78101944  1
  O  O4  1  0.35575126  0.48176230  0.51823770  1
  O  O5  1  0.75278636  0.74721364  0.75278636  1
  O  O6  1  0.51823770  0.64424874  0.35575126  1
  O  O7  1  0.25278636  0.24721364  0.25278636  1
