# generated using pymatgen
data_Hf2N2O
_symmetry_space_group_name_H-M   'P 1'
_cell_length_a   8.66199692
_cell_length_b   8.67001997
_cell_length_c   8.67375967
_cell_angle_alpha   109.50921237
_cell_angle_beta   109.23803012
_cell_angle_gamma   109.45975822
_symmetry_Int_Tables_number   1
_chemical_formula_structural   Hf2N2O
_chemical_formula_sum   'Hf16 N16 O8'
_cell_volume   502.71782077
_cell_formula_units_Z   8
loop_
 _symmetry_equiv_pos_site_id
 _symmetry_equiv_pos_as_xyz
  1  'x, y, z'
loop_
 _atom_site_type_symbol
 _atom_site_label
 _atom_site_symmetry_multiplicity
 _atom_site_fract_x
 _atom_site_fract_y
 _atom_site_fract_z
 _atom_site_occupancy
  Hf  Hf0  1  0.72624290  0.96915306  0.75578733  1
  Hf  Hf1  1  0.51067514  0.50013902  0.49909625  1
  Hf  Hf2  1  0.24235913  0.77896520  0.52939576  1
  Hf  Hf3  1  0.75470203  0.72197872  0.96794388  1
  Hf  Hf4  1  0.95675007  0.25016003  0.21402574  1
  Hf  Hf5  1  0.46232860  0.24287765  0.70528586  1
  Hf  Hf6  1  0.50583390  0.99635952  0.00897663  1
  Hf  Hf7  1  0.78544376  0.53399848  0.25002711  1
  Hf  Hf8  1  0.20734862  0.47310340  0.74778496  1
  Hf  Hf9  1  0.99030576  0.00148477  0.48871992  1
  Hf  Hf10  1  0.03017666  0.74419616  0.78931580  1
  Hf  Hf11  1  0.54065567  0.75213390  0.28410957  1
  Hf  Hf12  1  0.25157579  0.29234325  0.03635216  1
  Hf  Hf13  1  0.74932820  0.21446665  0.46435978  1
  Hf  Hf14  1  0.01136879  0.50155873  0.00243908  1
  Hf  Hf15  1  0.28559650  0.03105151  0.25497824  1
  N  N16  1  0.04555737  0.53848946  0.27438841  1
  N  N17  1  0.73311112  0.96181454  0.00826600  1
  N  N18  1  0.22984386  0.98915932  0.46088324  1
  N  N19  1  0.76908767  0.73501913  0.71990454  1
  N  N20  1  0.96982914  0.22725170  0.95707069  1
  N  N21  1  0.72325117  0.27072936  0.23344115  1
  N  N22  1  0.77126123  0.00885611  0.54355895  1
  N  N23  1  0.53343755  0.48971835  0.26652399  1
  N  N24  1  0.27249097  0.72976088  0.75838320  1
  N  N25  1  0.95193452  0.46670569  0.72768171  1
  N  N26  1  0.76426858  0.77124397  0.22758364  1
  N  N27  1  0.01862393  0.23969336  0.46595567  1
  N  N28  1  0.48166517  0.95146637  0.22333491  1
  N  N29  1  0.27312512  0.54377999  0.03109842  1
  N  N30  1  0.54414757  0.27670855  0.51516398  1
  N  N31  1  0.03197138  0.77540138  0.04578416  1
  O  O32  1  0.72012128  0.44788874  0.96368931  1
  O  O33  1  0.51767145  0.05106601  0.77293108  1
  O  O34  1  0.26147527  0.03869394  0.98716080  1
  O  O35  1  0.45213790  0.72812750  0.49438883  1
  O  O36  1  0.22888766  0.26094237  0.27023756  1
  O  O37  1  0.24272683  0.22560978  0.77645394  1
  O  O38  1  0.46565909  0.50592910  0.74206602  1
  O  O39  1  0.98701862  0.76197838  0.53544971  1
