# generated using pymatgen
data_Lu6WO12
_symmetry_space_group_name_H-M   'P 1'
_cell_length_a   6.27416329
_cell_length_b   6.27416329
_cell_length_c   6.27416426
_cell_angle_alpha   98.80519984
_cell_angle_beta   98.80519974
_cell_angle_gamma   98.80519141
_symmetry_Int_Tables_number   1
_chemical_formula_structural   Lu6WO12
_chemical_formula_sum   'Lu6 W1 O12'
_cell_volume   237.22352453
_cell_formula_units_Z   1
loop_
 _symmetry_equiv_pos_site_id
 _symmetry_equiv_pos_as_xyz
  1  'x, y, z'
loop_
 _atom_site_type_symbol
 _atom_site_label
 _atom_site_symmetry_multiplicity
 _atom_site_fract_x
 _atom_site_fract_y
 _atom_site_fract_z
 _atom_site_occupancy
  Lu  Lu0  1  0.31998987  0.14391701  0.61068886  1
  Lu  Lu1  1  0.85608299  0.38931114  0.68001013  1
  Lu  Lu2  1  0.61068886  0.31998987  0.14391701  1
  Lu  Lu3  1  0.38931114  0.68001013  0.85608299  1
  Lu  Lu4  1  0.14391701  0.61068886  0.31998987  1
  Lu  Lu5  1  0.68001013  0.85608299  0.38931114  1
  W  W6  1  -0.00000000  0.00000000  -0.00000000  1
  O  O7  1  0.91741845  0.03627778  0.69926406  1
  O  O8  1  0.30073594  0.08258155  0.96372222  1
  O  O9  1  0.58901712  0.17742006  0.42730645  1
  O  O10  1  0.96372222  0.30073594  0.08258155  1
  O  O11  1  0.57269355  0.41098288  0.82257994  1
  O  O12  1  0.17742006  0.42730645  0.58901712  1
  O  O13  1  0.82257994  0.57269355  0.41098288  1
  O  O14  1  0.42730645  0.58901712  0.17742006  1
  O  O15  1  0.03627778  0.69926406  0.91741845  1
  O  O16  1  0.41098288  0.82257994  0.57269355  1
  O  O17  1  0.69926406  0.91741845  0.03627778  1
  O  O18  1  0.08258155  0.96372222  0.30073594  1
