# generated using pymatgen
data_La3Ti2N3O4
_symmetry_space_group_name_H-M   'P 1'
_cell_length_a   10.71323797
_cell_length_b   10.71323797
_cell_length_c   10.71323797
_cell_angle_alpha   159.15278335
_cell_angle_beta   158.55091695
_cell_angle_gamma   30.08580776
_symmetry_Int_Tables_number   1
_chemical_formula_structural   La3Ti2N3O4
_chemical_formula_sum   'La3 Ti2 N3 O4'
_cell_volume   159.91642156
_cell_formula_units_Z   1
loop_
 _symmetry_equiv_pos_site_id
 _symmetry_equiv_pos_as_xyz
  1  'x, y, z'
loop_
 _atom_site_type_symbol
 _atom_site_label
 _atom_site_symmetry_multiplicity
 _atom_site_fract_x
 _atom_site_fract_y
 _atom_site_fract_z
 _atom_site_occupancy
  La  La0  1  0.50000000  0.50000000  0.00000000  1
  La  La1  1  0.68210430  0.68210430  0.00000000  1
  La  La2  1  0.31789570  0.31789570  -0.00000000  1
  Ti  Ti3  1  0.90665832  0.90665832  -0.00000000  1
  Ti  Ti4  1  0.09334168  0.09334168  0.00000000  1
  N  N5  1  0.00000000  0.00000000  0.00000000  1
  N  N6  1  0.39907126  0.89907126  0.50000000  1
  N  N7  1  0.60092874  0.10092874  0.50000000  1
  O  O8  1  0.10320865  0.60320865  0.50000000  1
  O  O9  1  0.79595873  0.79595873  0.00000000  1
  O  O10  1  0.20404127  0.20404127  -0.00000000  1
  O  O11  1  0.89679135  0.39679135  0.50000000  1
