# generated using pymatgen
data_LaO3
_symmetry_space_group_name_H-M   'P 1'
_cell_length_a   5.42928923
_cell_length_b   5.42926098
_cell_length_c   4.52900210
_cell_angle_alpha   90.00000000
_cell_angle_beta   90.00000000
_cell_angle_gamma   119.99947978
_symmetry_Int_Tables_number   1
_chemical_formula_structural   LaO3
_chemical_formula_sum   'La2 O6'
_cell_volume   115.61631614
_cell_formula_units_Z   2
loop_
 _symmetry_equiv_pos_site_id
 _symmetry_equiv_pos_as_xyz
  1  'x, y, z'
loop_
 _atom_site_type_symbol
 _atom_site_label
 _atom_site_symmetry_multiplicity
 _atom_site_fract_x
 _atom_site_fract_y
 _atom_site_fract_z
 _atom_site_occupancy
  La  La0  1  0.33333265  0.66666673  0.25000000  1
  La  La1  1  0.66666735  0.33333327  0.75000000  1
  O  O2  1  0.83845081  0.59123797  0.25000000  1
  O  O3  1  0.75278804  0.16154612  0.25000000  1
  O  O4  1  0.40876094  0.24721192  0.25000000  1
  O  O5  1  0.16154919  0.40876203  0.75000000  1
  O  O6  1  0.24721196  0.83845388  0.75000000  1
  O  O7  1  0.59123906  0.75278808  0.75000000  1
