# generated using pymatgen
data_Ba2CaI6
_symmetry_space_group_name_H-M   'P 1'
_cell_length_a   9.11102846
_cell_length_b   7.76294335
_cell_length_c   13.49951688
_cell_angle_alpha   56.09985993
_cell_angle_beta   90.00000000
_cell_angle_gamma   90.00000000
_symmetry_Int_Tables_number   1
_chemical_formula_structural   Ba2CaI6
_chemical_formula_sum   'Ba4 Ca2 I12'
_cell_volume   792.49376363
_cell_formula_units_Z   2
loop_
 _symmetry_equiv_pos_site_id
 _symmetry_equiv_pos_as_xyz
  1  'x, y, z'
loop_
 _atom_site_type_symbol
 _atom_site_label
 _atom_site_symmetry_multiplicity
 _atom_site_fract_x
 _atom_site_fract_y
 _atom_site_fract_z
 _atom_site_occupancy
  Ba  Ba0  1  0.88792091  0.78766927  0.75345571  1
  Ba  Ba1  1  0.11207909  0.21233073  0.24654429  1
  Ba  Ba2  1  0.61207909  0.78766927  0.25345571  1
  Ba  Ba3  1  0.38792091  0.21233073  0.74654429  1
  Ca  Ca4  1  0.50000000  0.50000000  0.00000000  1
  Ca  Ca5  1  0.00000000  0.50000000  0.50000000  1
  I  I6  1  0.96875209  0.64137070  0.23781482  1
  I  I7  1  0.69019769  0.28339333  0.55708239  1
  I  I8  1  0.67108457  0.89361286  0.94098231  1
  I  I9  1  0.17108457  0.10638714  0.55901769  1
  I  I10  1  0.19019769  0.71660667  0.94291761  1
  I  I11  1  0.46875209  0.35862930  0.26218518  1
  I  I12  1  0.53124791  0.64137070  0.73781482  1
  I  I13  1  0.80980231  0.28339333  0.05708239  1
  I  I14  1  0.82891543  0.89361286  0.44098231  1
  I  I15  1  0.32891543  0.10638714  0.05901769  1
  I  I16  1  0.30980231  0.71660667  0.44291761  1
  I  I17  1  0.03124791  0.35862930  0.76218518  1
