# generated using pymatgen
data_Hf2N2O
_symmetry_space_group_name_H-M   'P 1'
_cell_length_a   8.70102845
_cell_length_b   8.69174024
_cell_length_c   8.64856287
_cell_angle_alpha   109.35438338
_cell_angle_beta   109.55593490
_cell_angle_gamma   109.62468952
_symmetry_Int_Tables_number   1
_chemical_formula_structural   Hf2N2O
_chemical_formula_sum   'Hf16 N16 O8'
_cell_volume   502.74218827
_cell_formula_units_Z   8
loop_
 _symmetry_equiv_pos_site_id
 _symmetry_equiv_pos_as_xyz
  1  'x, y, z'
loop_
 _atom_site_type_symbol
 _atom_site_label
 _atom_site_symmetry_multiplicity
 _atom_site_fract_x
 _atom_site_fract_y
 _atom_site_fract_z
 _atom_site_occupancy
  Hf  Hf0  1  0.48950083  0.99012682  0.98860912  1
  Hf  Hf1  1  0.75626867  0.29219734  0.54314327  1
  Hf  Hf2  1  0.72076355  0.47121791  0.24930222  1
  Hf  Hf3  1  0.21298709  0.95477257  0.24940064  1
  Hf  Hf4  1  0.25015544  0.21530976  0.95664219  1
  Hf  Hf5  1  0.97270765  0.26540598  0.22402496  1
  Hf  Hf6  1  0.99648351  0.50895375  0.99672685  1
  Hf  Hf7  1  0.50359934  0.50927873  0.51259822  1
  Hf  Hf8  1  0.00964430  0.99788266  0.50799542  1
  Hf  Hf9  1  0.02631901  0.74096523  0.77414264  1
  Hf  Hf10  1  0.46593793  0.25016256  0.72182032  1
  Hf  Hf11  1  0.53364535  0.74890775  0.28231644  1
  Hf  Hf12  1  0.74426759  0.77807269  0.03595929  1
  Hf  Hf13  1  0.78065994  0.03096531  0.74523805  1
  Hf  Hf14  1  0.28591314  0.53671903  0.75123730  1
  Hf  Hf15  1  0.25129700  0.71498297  0.46403215  1
  N  N16  1  0.51058564  0.23904165  0.97193855  1
  N  N17  1  0.76678234  0.53689979  0.52602971  1
  N  N18  1  0.72540955  0.25501670  0.76715462  1
  N  N19  1  0.23612534  0.96800517  0.50717301  1
  N  N20  1  0.77084366  0.72699405  0.26227696  1
  N  N21  1  0.49269974  0.76871086  0.03617395  1
  N  N22  1  0.95849941  0.73297231  0.99141161  1
  N  N23  1  0.96308305  0.50580199  0.23619128  1
  N  N24  1  0.27347286  0.73920273  0.22476404  1
  N  N25  1  0.22811593  0.44947408  0.46233497  1
  N  N26  1  0.54913010  0.53335997  0.77323932  1
  N  N27  1  0.54058308  0.77423940  0.54898211  1
  N  N28  1  0.99013000  0.95859232  0.73146713  1
  N  N29  1  0.22451861  0.27285727  0.74080702  1
  N  N30  1  0.03116840  0.48423464  0.75817764  1
  N  N31  1  0.26205949  0.77765373  0.72826396  1
  O  O32  1  0.73133440  0.99696577  0.95882269  1
  O  O33  1  0.28228166  0.01498877  0.05362857  1
  O  O34  1  0.76039261  0.03417029  0.48457016  1
  O  O35  1  0.74358181  0.21846415  0.27571499  1
  O  O36  1  0.46117214  0.22492360  0.44579152  1
  O  O37  1  0.04903077  0.27071473  0.01917167  1
  O  O38  1  0.44410856  0.46610105  0.22258290  1
  O  O39  1  0.00474454  0.04469396  0.27014354  1
