# generated using pymatgen
data_Cs2Na4Cu2Si12H4O31
_symmetry_space_group_name_H-M   'P 1'
_cell_length_a   13.11318337
_cell_length_b   13.11318337
_cell_length_c   18.32047469
_cell_angle_alpha   67.96169652
_cell_angle_beta   112.03830348
_cell_angle_gamma   147.26362405
_symmetry_Int_Tables_number   1
_chemical_formula_structural   Cs2Na4Cu2Si12H4O31
_chemical_formula_sum   'Cs4 Na8 Cu4 Si24 H8 O62'
_cell_volume   1567.92778239
_cell_formula_units_Z   2
loop_
 _symmetry_equiv_pos_site_id
 _symmetry_equiv_pos_as_xyz
  1  'x, y, z'
loop_
 _atom_site_type_symbol
 _atom_site_label
 _atom_site_symmetry_multiplicity
 _atom_site_fract_x
 _atom_site_fract_y
 _atom_site_fract_z
 _atom_site_occupancy
  Cs  Cs0  1  0.25709338  0.21261197  0.61900849  1
  Cs  Cs1  1  0.21261197  0.25709338  0.88099151  1
  Cs  Cs2  1  0.74290662  0.78738803  0.38099151  1
  Cs  Cs3  1  0.78738803  0.74290662  0.11900849  1
  Na  Na4  1  0.01804670  0.51969795  0.64828016  1
  Na  Na5  1  0.51969795  0.01804670  0.85171984  1
  Na  Na6  1  0.98195330  0.48030205  0.35171984  1
  Na  Na7  1  0.48030205  0.98195330  0.14828016  1
  Na  Na8  1  0.53568126  0.98121788  0.66722328  1
  Na  Na9  1  0.98121788  0.53568126  0.83277672  1
  Na  Na10  1  0.46431874  0.01878212  0.33277672  1
  Na  Na11  1  0.01878212  0.46431874  0.16722328  1
  Cu  Cu12  1  0.75175155  0.27355816  0.48731071  1
  Cu  Cu13  1  0.27355816  0.75175155  0.01268929  1
  Cu  Cu14  1  0.24824845  0.72644184  0.51268929  1
  Cu  Cu15  1  0.72644184  0.24824845  0.98731071  1
  Si  Si16  1  0.62230296  0.38002100  0.50883657  1
  Si  Si17  1  0.38002100  0.62230296  0.99116343  1
  Si  Si18  1  0.37769704  0.61997900  0.49116343  1
  Si  Si19  1  0.61997900  0.37769704  0.00883657  1
  Si  Si20  1  0.22002403  0.94187264  0.53026594  1
  Si  Si21  1  0.94187264  0.22002403  0.96973406  1
  Si  Si22  1  0.77997597  0.05812736  0.46973406  1
  Si  Si23  1  0.05812736  0.77997597  0.03026594  1
  Si  Si24  1  0.89768567  0.16580280  0.62871167  1
  Si  Si25  1  0.16580280  0.89768567  0.87128833  1
  Si  Si26  1  0.10231433  0.83419720  0.37128833  1
  Si  Si27  1  0.83419720  0.10231433  0.12871167  1
  Si  Si28  1  0.81041441  0.69085377  0.74285613  1
  Si  Si29  1  0.69085377  0.81041441  0.75714387  1
  Si  Si30  1  0.18958559  0.30914623  0.25714387  1
  Si  Si31  1  0.30914623  0.18958559  0.24285613  1
  Si  Si32  1  0.55134487  0.32264585  0.84809133  1
  Si  Si33  1  0.32264585  0.55134487  0.65190867  1
  Si  Si34  1  0.44865513  0.67735415  0.15190867  1
  Si  Si35  1  0.67735415  0.44865513  0.34809133  1
  Si  Si36  1  0.87979055  0.66182299  0.62224143  1
  Si  Si37  1  0.66182299  0.87979055  0.87775857  1
  Si  Si38  1  0.12020945  0.33817701  0.37775857  1
  Si  Si39  1  0.33817701  0.12020945  0.12224143  1
  H  H40  1  0.70712165  0.33084289  0.70708347  1
  H  H41  1  0.33084289  0.70712165  0.79291653  1
  H  H42  1  0.29287835  0.66915711  0.29291653  1
  H  H43  1  0.66915711  0.29287835  0.20708347  1
  H  H44  1  0.14917767  0.49046352  0.82228158  1
  H  H45  1  0.49046352  0.14917767  0.67771842  1
  H  H46  1  0.85082233  0.50953648  0.17771842  1
  H  H47  1  0.50953648  0.85082233  0.32228158  1
  O  O48  1  0.84381876  0.73443180  0.65277921  1
  O  O49  1  0.73443180  0.84381876  0.84722079  1
  O  O50  1  0.15618124  0.26556820  0.34722079  1
  O  O51  1  0.26556820  0.15618124  0.15277921  1
  O  O52  1  0.88580838  0.09955397  0.56178211  1
  O  O53  1  0.09955397  0.88580838  0.93821789  1
  O  O54  1  0.11419162  0.90044603  0.43821789  1
  O  O55  1  0.90044603  0.11419162  0.06178211  1
  O  O56  1  0.40791857  0.17223590  0.53640408  1
  O  O57  1  0.17223590  0.40791857  0.96359592  1
  O  O58  1  0.59208143  0.82776410  0.46359592  1
  O  O59  1  0.82776410  0.59208143  0.03640408  1
  O  O60  1  0.81329983  0.81329983  0.75000000  1
  O  O61  1  0.18670017  0.18670017  0.25000000  1
  O  O62  1  0.40289905  0.57064905  0.58866704  1
  O  O63  1  0.57064905  0.40289905  0.91133296  1
  O  O64  1  0.59710095  0.42935095  0.41133296  1
  O  O65  1  0.42935095  0.59710095  0.08866704  1
  O  O66  1  0.07917960  0.86271424  0.58153177  1
  O  O67  1  0.86271424  0.07917960  0.91846823  1
  O  O68  1  0.92082040  0.13728576  0.41846823  1
  O  O69  1  0.13728576  0.92082040  0.08153177  1
  O  O70  1  0.32272733  0.11676973  0.82491368  1
  O  O71  1  0.11676973  0.32272733  0.67508632  1
  O  O72  1  0.67727267  0.88323027  0.17508632  1
  O  O73  1  0.88323027  0.67727267  0.32491368  1
  O  O74  1  0.60838773  0.46253489  0.76350198  1
  O  O75  1  0.46253489  0.60838773  0.73649802  1
  O  O76  1  0.39161227  0.53746511  0.23649802  1
  O  O77  1  0.53746511  0.39161227  0.26350198  1
  O  O78  1  0.70223009  0.53452748  0.54971722  1
  O  O79  1  0.53452748  0.70223009  0.95028278  1
  O  O80  1  0.29776991  0.46547252  0.45028278  1
  O  O81  1  0.46547252  0.29776991  0.04971722  1
  O  O82  1  0.75996455  0.98379135  0.69594367  1
  O  O83  1  0.98379135  0.75996455  0.80405633  1
  O  O84  1  0.24003545  0.01620865  0.30405633  1
  O  O85  1  0.01620865  0.24003545  0.19594367  1
  O  O86  1  0.26997649  0.85354913  0.56426877  1
  O  O87  1  0.85354913  0.26997649  0.93573123  1
  O  O88  1  0.73002351  0.14645087  0.43573123  1
  O  O89  1  0.14645087  0.73002351  0.06426877  1
  O  O90  1  0.67705376  0.31523107  0.87817174  1
  O  O91  1  0.31523107  0.67705376  0.62182826  1
  O  O92  1  0.32294624  0.68476893  0.12182826  1
  O  O93  1  0.68476893  0.32294624  0.37817174  1
  O  O94  1  0.82966137  0.23615872  0.59618653  1
  O  O95  1  0.23615872  0.82966137  0.90381347  1
  O  O96  1  0.17033863  0.76384128  0.40381347  1
  O  O97  1  0.76384128  0.17033863  0.09618653  1
  O  O98  1  0.76772172  0.39815001  0.53341726  1
  O  O99  1  0.39815001  0.76772172  0.96658274  1
  O  O100  1  0.23227828  0.60184999  0.46658274  1
  O  O101  1  0.60184999  0.23227828  0.03341726  1
  O  O102  1  0.89019216  0.55121905  0.69083812  1
  O  O103  1  0.55121905  0.89019216  0.80916188  1
  O  O104  1  0.10980784  0.44878095  0.30916188  1
  O  O105  1  0.44878095  0.10980784  0.19083812  1
  O  O106  1  0.18386529  0.58936453  0.78423351  1
  O  O107  1  0.58936453  0.18386529  0.71576649  1
  O  O108  1  0.81613471  0.41063547  0.21576649  1
  O  O109  1  0.41063547  0.81613471  0.28423351  1
