# generated using pymatgen
data_Cr4OF11
_symmetry_space_group_name_H-M   'P 1'
_cell_length_a   4.90852386
_cell_length_b   5.21069401
_cell_length_c   16.27629601
_cell_angle_alpha   92.98645332
_cell_angle_beta   98.65934168
_cell_angle_gamma   61.87346820
_symmetry_Int_Tables_number   1
_chemical_formula_structural   Cr4OF11
_chemical_formula_sum   'Cr8 O2 F22'
_cell_volume   362.86483292
_cell_formula_units_Z   2
loop_
 _symmetry_equiv_pos_site_id
 _symmetry_equiv_pos_as_xyz
  1  'x, y, z'
loop_
 _atom_site_type_symbol
 _atom_site_label
 _atom_site_symmetry_multiplicity
 _atom_site_fract_x
 _atom_site_fract_y
 _atom_site_fract_z
 _atom_site_occupancy
  Cr  Cr0  1  0.75253243  0.60761592  0.12143379  1
  Cr  Cr1  1  0.75282635  0.11707873  0.62336561  1
  Cr  Cr2  1  0.50000000  0.75000000  0.75000000  1
  Cr  Cr3  1  0.50000000  0.25000000  0.25000000  1
  Cr  Cr4  1  0.24746757  0.89238408  0.37856621  1
  Cr  Cr5  1  0.24717365  0.38292127  0.87663439  1
  Cr  Cr6  1  0.01390987  0.47615953  0.49488397  1
  Cr  Cr7  1  0.98609013  0.02384047  0.00511603  1
  O  O8  1  0.73803014  0.31572612  0.06324019  1
  O  O9  1  0.26196986  0.18427388  0.43675981  1
  F  F10  1  0.80884407  0.78191234  0.02988518  1
  F  F11  1  0.75509029  0.93198998  0.18694161  1
  F  F12  1  0.75049694  0.80055031  0.56042208  1
  F  F13  1  0.69281654  0.96929208  0.72020620  1
  F  F14  1  0.69131013  0.65171954  0.40338136  1
  F  F15  1  0.69368712  0.47023805  0.22045756  1
  F  F16  1  0.80531365  0.59981808  0.84686656  1
  F  F17  1  0.80738660  0.09620678  0.34663803  1
  F  F18  1  0.80968261  0.27264446  0.52681105  1
  F  F19  1  0.30868987  0.84828046  0.09661864  1
  F  F20  1  0.76019808  0.43352537  0.68688871  1
  F  F21  1  0.24490971  0.56801002  0.31305839  1
  F  F22  1  0.69123014  0.15865179  0.90594334  1
  F  F23  1  0.19468635  0.90018192  0.65313344  1
  F  F24  1  0.19261340  0.40379322  0.15336197  1
  F  F25  1  0.19115593  0.71808766  0.47011482  1
  F  F26  1  0.30718346  0.53070792  0.77979380  1
  F  F27  1  0.30876986  0.34134821  0.59405666  1
  F  F28  1  0.30631288  0.02976195  0.27954244  1
  F  F29  1  0.24950306  0.69944969  0.93957792  1
  F  F30  1  0.23980192  0.06647463  0.81311129  1
  F  F31  1  0.19031739  0.22735554  0.97318895  1
