# generated using pymatgen
data_Cs2O
_symmetry_space_group_name_H-M   'P 1'
_cell_length_a   7.04922520
_cell_length_b   5.38754512
_cell_length_c   9.73730046
_cell_angle_alpha   90.00000000
_cell_angle_beta   90.00000000
_cell_angle_gamma   90.00000000
_symmetry_Int_Tables_number   1
_chemical_formula_structural   Cs2O
_chemical_formula_sum   'Cs8 O4'
_cell_volume   369.80338018
_cell_formula_units_Z   4
loop_
 _symmetry_equiv_pos_site_id
 _symmetry_equiv_pos_as_xyz
  1  'x, y, z'
loop_
 _atom_site_type_symbol
 _atom_site_label
 _atom_site_symmetry_multiplicity
 _atom_site_fract_x
 _atom_site_fract_y
 _atom_site_fract_z
 _atom_site_occupancy
  Cs  Cs0  1  0.00737112  0.25000000  0.13658635  1
  Cs  Cs1  1  0.10278733  0.25000000  0.61331586  1
  Cs  Cs2  1  0.39721267  0.75000000  0.11331686  1
  Cs  Cs3  1  0.49262888  0.75000000  0.63658635  1
  Cs  Cs4  1  0.50737112  0.25000000  0.36341365  1
  Cs  Cs5  1  0.60278733  0.25000000  0.88668414  1
  Cs  Cs6  1  0.89721267  0.75000000  0.38668414  1
  Cs  Cs7  1  0.99262888  0.75000000  0.86341365  1
  O  O8  1  0.29294380  0.75000000  0.39767702  1
  O  O9  1  0.20705620  0.25000000  0.89767702  1
  O  O10  1  0.79294380  0.75000000  0.10232298  1
  O  O11  1  0.70705620  0.25000000  0.60232298  1
