# generated using pymatgen
data_Li3AuO3
_symmetry_space_group_name_H-M   'P 1'
_cell_length_a   9.08504050
_cell_length_b   9.08504050
_cell_length_c   3.55251326
_cell_angle_alpha   90.00000000
_cell_angle_beta   90.00000000
_cell_angle_gamma   90.00000000
_symmetry_Int_Tables_number   1
_chemical_formula_structural   Li3AuO3
_chemical_formula_sum   'Li12 Au4 O12'
_cell_volume   293.21720050
_cell_formula_units_Z   4
loop_
 _symmetry_equiv_pos_site_id
 _symmetry_equiv_pos_as_xyz
  1  'x, y, z'
loop_
 _atom_site_type_symbol
 _atom_site_label
 _atom_site_symmetry_multiplicity
 _atom_site_fract_x
 _atom_site_fract_y
 _atom_site_fract_z
 _atom_site_occupancy
  Li  Li0  1  0.14072923  0.59201041  -0.00000000  1
  Li  Li1  1  0.09201041  0.35927077  0.50000000  1
  Li  Li2  1  0.90798959  0.64072923  0.50000000  1
  Li  Li3  1  0.85927077  0.40798959  0.00000000  1
  Li  Li4  1  0.35927077  0.09201041  0.50000000  1
  Li  Li5  1  0.64072923  0.90798959  0.50000000  1
  Li  Li6  1  0.59201041  0.14072923  0.00000000  1
  Li  Li7  1  0.40798959  0.85927077  0.00000000  1
  Li  Li8  1  0.16761236  0.16761236  -0.00000000  1
  Li  Li9  1  0.66761236  0.33238764  0.50000000  1
  Li  Li10  1  0.33238764  0.66761236  0.50000000  1
  Li  Li11  1  0.83238764  0.83238764  0.00000000  1
  Au  Au12  1  0.61832273  0.61832273  0.00000000  1
  Au  Au13  1  0.88167727  0.11832273  0.50000000  1
  Au  Au14  1  0.38167727  0.38167727  0.00000000  1
  Au  Au15  1  0.11832273  0.88167727  0.50000000  1
  O  O16  1  0.10770511  0.10770511  0.50000000  1
  O  O17  1  0.89229489  0.89229489  0.50000000  1
  O  O18  1  0.39229489  0.60770511  0.00000000  1
  O  O19  1  0.60770511  0.39229489  0.00000000  1
  O  O20  1  0.38109319  0.16246246  0.00000000  1
  O  O21  1  0.66246246  0.11890681  0.50000000  1
  O  O22  1  0.33753754  0.88109319  0.50000000  1
  O  O23  1  0.61890681  0.83753754  0.00000000  1
  O  O24  1  0.11890681  0.66246246  0.50000000  1
  O  O25  1  0.88109319  0.33753754  0.50000000  1
  O  O26  1  0.16246246  0.38109319  0.00000000  1
  O  O27  1  0.83753754  0.61890681  0.00000000  1
