# generated using pymatgen
data_K3TbSi3(HO5)2
_symmetry_space_group_name_H-M   'P 1'
_cell_length_a   5.88982397
_cell_length_b   13.21035859
_cell_length_c   13.48040118
_cell_angle_alpha   90.00000000
_cell_angle_beta   90.00000000
_cell_angle_gamma   90.00000000
_symmetry_Int_Tables_number   1
_chemical_formula_structural   K3TbSi3(HO5)2
_chemical_formula_sum   'K12 Tb4 Si12 H8 O40'
_cell_volume   1048.86535087
_cell_formula_units_Z   4
loop_
 _symmetry_equiv_pos_site_id
 _symmetry_equiv_pos_as_xyz
  1  'x, y, z'
loop_
 _atom_site_type_symbol
 _atom_site_label
 _atom_site_symmetry_multiplicity
 _atom_site_fract_x
 _atom_site_fract_y
 _atom_site_fract_z
 _atom_site_occupancy
  K  K0  1  0.42361129  0.12831076  0.75000000  1
  K  K1  1  0.08646073  0.13812179  0.51643802  1
  K  K2  1  0.08646073  0.13812179  0.98356198  1
  K  K3  1  0.58646073  0.36187821  0.48356198  1
  K  K4  1  0.58646073  0.36187821  0.01643802  1
  K  K5  1  0.92361129  0.37168924  0.25000000  1
  K  K6  1  0.07638871  0.62831076  0.75000000  1
  K  K7  1  0.41353927  0.63812179  0.51643802  1
  K  K8  1  0.41353927  0.63812179  0.98356198  1
  K  K9  1  0.91353927  0.86187821  0.01643802  1
  K  K10  1  0.91353927  0.86187821  0.48356198  1
  K  K11  1  0.57638871  0.87168924  0.25000000  1
  Tb  Tb12  1  0.08368354  0.04023578  0.25000000  1
  Tb  Tb13  1  0.58368354  0.45976422  0.75000000  1
  Tb  Tb14  1  0.41631646  0.54023578  0.25000000  1
  Tb  Tb15  1  0.91631646  0.95976422  0.75000000  1
  Si  Si16  1  0.58688616  0.09804858  0.10165650  1
  Si  Si17  1  0.58688616  0.09804858  0.39834350  1
  Si  Si18  1  0.91888107  0.24864996  0.75000000  1
  Si  Si19  1  0.41888107  0.25135004  0.25000000  1
  Si  Si20  1  0.08688616  0.40195142  0.60165650  1
  Si  Si21  1  0.08688616  0.40195142  0.89834350  1
  Si  Si22  1  0.91311384  0.59804858  0.10165650  1
  Si  Si23  1  0.91311384  0.59804858  0.39834350  1
  Si  Si24  1  0.58111893  0.74864996  0.75000000  1
  Si  Si25  1  0.08111893  0.75135004  0.25000000  1
  Si  Si26  1  0.41311384  0.90195142  0.60165650  1
  Si  Si27  1  0.41311384  0.90195142  0.89834350  1
  H  H28  1  0.61150571  0.07127076  0.56327104  1
  H  H29  1  0.61150571  0.07127076  0.93672896  1
  H  H30  1  0.11150571  0.42872924  0.06327104  1
  H  H31  1  0.11150571  0.42872924  0.43672896  1
  H  H32  1  0.88849429  0.57127076  0.93672896  1
  H  H33  1  0.88849429  0.57127076  0.56327104  1
  H  H34  1  0.38849429  0.92872924  0.06327104  1
  H  H35  1  0.38849429  0.92872924  0.43672896  1
  O  O36  1  0.36640617  0.03042736  0.12914357  1
  O  O37  1  0.36640617  0.03042736  0.37085643  1
  O  O38  1  0.82180907  0.04237588  0.12768002  1
  O  O39  1  0.82180907  0.04237588  0.37231998  1
  O  O40  1  0.93174105  0.12800355  0.75000000  1
  O  O41  1  0.58435898  0.13067078  0.51798957  1
  O  O42  1  0.58435898  0.13067078  0.98201043  1
  O  O43  1  0.16899945  0.20454579  0.25000000  1
  O  O44  1  0.56753166  0.21093219  0.15309851  1
  O  O45  1  0.56753166  0.21093219  0.34690149  1
  O  O46  1  0.06753166  0.28906781  0.65309851  1
  O  O47  1  0.06753166  0.28906781  0.84690149  1
  O  O48  1  0.66899945  0.29545421  0.75000000  1
  O  O49  1  0.08435898  0.36932922  0.48201043  1
  O  O50  1  0.08435898  0.36932922  0.01798957  1
  O  O51  1  0.43174105  0.37199645  0.25000000  1
  O  O52  1  0.32180907  0.45762412  0.62768002  1
  O  O53  1  0.32180907  0.45762412  0.87231998  1
  O  O54  1  0.86640617  0.46957264  0.62914357  1
  O  O55  1  0.86640617  0.46957264  0.87085643  1
  O  O56  1  0.13359383  0.53042736  0.12914357  1
  O  O57  1  0.13359383  0.53042736  0.37085643  1
  O  O58  1  0.67819093  0.54237588  0.12768002  1
  O  O59  1  0.67819093  0.54237588  0.37231998  1
  O  O60  1  0.56825895  0.62800355  0.75000000  1
  O  O61  1  0.91564102  0.63067078  0.98201043  1
  O  O62  1  0.91564102  0.63067078  0.51798957  1
  O  O63  1  0.33100055  0.70454579  0.25000000  1
  O  O64  1  0.93246834  0.71093219  0.15309851  1
  O  O65  1  0.93246834  0.71093219  0.34690149  1
  O  O66  1  0.43246834  0.78906781  0.65309851  1
  O  O67  1  0.43246834  0.78906781  0.84690149  1
  O  O68  1  0.83100055  0.79545421  0.75000000  1
  O  O69  1  0.41564102  0.86932922  0.01798957  1
  O  O70  1  0.41564102  0.86932922  0.48201043  1
  O  O71  1  0.06825895  0.87199645  0.25000000  1
  O  O72  1  0.17819093  0.95762412  0.62768002  1
  O  O73  1  0.17819093  0.95762412  0.87231998  1
  O  O74  1  0.63359383  0.96957264  0.62914357  1
  O  O75  1  0.63359383  0.96957264  0.87085643  1
