# generated using pymatgen
data_Lu2GeO5
_symmetry_space_group_name_H-M   'P 1'
_cell_length_a   8.03012786
_cell_length_b   8.03012786
_cell_length_c   10.18153168
_cell_angle_alpha   61.38978615
_cell_angle_beta   61.38978615
_cell_angle_gamma   49.15488320
_symmetry_Int_Tables_number   1
_chemical_formula_structural   Lu2GeO5
_chemical_formula_sum   'Lu8 Ge4 O20'
_cell_volume   422.22787577
_cell_formula_units_Z   4
loop_
 _symmetry_equiv_pos_site_id
 _symmetry_equiv_pos_as_xyz
  1  'x, y, z'
loop_
 _atom_site_type_symbol
 _atom_site_label
 _atom_site_symmetry_multiplicity
 _atom_site_fract_x
 _atom_site_fract_y
 _atom_site_fract_z
 _atom_site_occupancy
  Lu  Lu0  1  0.76416085  0.50861442  0.66102895  1
  Lu  Lu1  1  0.22307915  0.70564556  0.96764441  1
  Lu  Lu2  1  0.29435444  0.77692085  0.53235559  1
  Lu  Lu3  1  0.50861442  0.76416085  0.16102895  1
  Lu  Lu4  1  0.49138558  0.23583915  0.83897105  1
  Lu  Lu5  1  0.70564556  0.22307915  0.46764441  1
  Lu  Lu6  1  0.77692085  0.29435444  0.03235559  1
  Lu  Lu7  1  0.23583915  0.49138558  0.33897105  1
  Ge  Ge8  1  0.71736920  0.91037349  0.30869986  1
  Ge  Ge9  1  0.08962651  0.28263080  0.19130014  1
  Ge  Ge10  1  0.91037349  0.71736920  0.80869986  1
  Ge  Ge11  1  0.28263080  0.08962651  0.69130014  1
  O  O12  1  0.90697281  0.92766685  0.12927090  1
  O  O13  1  0.12714769  0.28346938  0.55193485  1
  O  O14  1  0.41918113  0.81600402  0.67114576  1
  O  O15  1  0.14996968  0.46357449  0.17695668  1
  O  O16  1  0.53642551  0.85003032  0.32304332  1
  O  O17  1  0.58291319  0.38362496  0.89736635  1
  O  O18  1  0.61637504  0.41708681  0.60263365  1
  O  O19  1  0.07233315  0.09302719  0.37072910  1
  O  O20  1  0.28346938  0.12714769  0.05193485  1
  O  O21  1  0.18399598  0.58081887  0.82885424  1
  O  O22  1  0.81600402  0.41918113  0.17114576  1
  O  O23  1  0.71653062  0.87285231  0.94806515  1
  O  O24  1  0.92766685  0.90697281  0.62927090  1
  O  O25  1  0.38362496  0.58291319  0.39736635  1
  O  O26  1  0.41708681  0.61637504  0.10263365  1
  O  O27  1  0.46357449  0.14996968  0.67695668  1
  O  O28  1  0.85003032  0.53642551  0.82304332  1
  O  O29  1  0.58081887  0.18399598  0.32885424  1
  O  O30  1  0.87285231  0.71653062  0.44806515  1
  O  O31  1  0.09302719  0.07233315  0.87072910  1
