# generated using pymatgen
data_CoTe2O5
_symmetry_space_group_name_H-M   'P 1'
_cell_length_a   5.84397461
_cell_length_b   7.23314368
_cell_length_c   10.69874093
_cell_angle_alpha   90.00000000
_cell_angle_beta   90.00000000
_cell_angle_gamma   90.00000000
_symmetry_Int_Tables_number   1
_chemical_formula_structural   CoTe2O5
_chemical_formula_sum   'Co4 Te8 O20'
_cell_volume   452.23907450
_cell_formula_units_Z   4
loop_
 _symmetry_equiv_pos_site_id
 _symmetry_equiv_pos_as_xyz
  1  'x, y, z'
loop_
 _atom_site_type_symbol
 _atom_site_label
 _atom_site_symmetry_multiplicity
 _atom_site_fract_x
 _atom_site_fract_y
 _atom_site_fract_z
 _atom_site_occupancy
  Co  Co0  1  0.75000000  0.50000000  0.56268299  1
  Co  Co1  1  0.25000000  0.50000000  0.43731701  1
  Co  Co2  1  0.75000000  0.00000000  0.06268299  1
  Co  Co3  1  0.25000000  0.00000000  0.93731701  1
  Te  Te4  1  0.00038559  0.63250493  0.84651950  1
  Te  Te5  1  0.50038559  0.63250493  0.15348050  1
  Te  Te6  1  0.50038559  0.86749507  0.65348050  1
  Te  Te7  1  0.00038559  0.86749507  0.34651950  1
  Te  Te8  1  -0.00038559  0.13250493  0.65348050  1
  Te  Te9  1  0.49961441  0.13250493  0.34651950  1
  Te  Te10  1  -0.00038559  0.36749507  0.15348050  1
  Te  Te11  1  0.49961441  0.36749507  0.84651950  1
  O  O12  1  0.75000000  0.50000000  0.93986232  1
  O  O13  1  0.25000000  0.50000000  0.06013768  1
  O  O14  1  0.46091217  0.64743424  0.56296990  1
  O  O15  1  0.96091217  0.64743424  0.43703010  1
  O  O16  1  0.81764793  0.69254527  0.70749604  1
  O  O17  1  0.31764793  0.69254527  0.29250396  1
  O  O18  1  0.31764793  0.80745473  0.79250396  1
  O  O19  1  0.81764793  0.80745473  0.20749604  1
  O  O20  1  0.96091217  0.85256576  0.93703010  1
  O  O21  1  0.46091217  0.85256576  0.06296990  1
  O  O22  1  0.75000000  0.00000000  0.43986232  1
  O  O23  1  0.25000000  0.00000000  0.56013768  1
  O  O24  1  0.53908783  0.14743424  0.93703010  1
  O  O25  1  0.03908783  0.14743424  0.06296990  1
  O  O26  1  0.18235207  0.19254527  0.79250396  1
  O  O27  1  0.68235207  0.19254527  0.20749604  1
  O  O28  1  0.68235207  0.30745473  0.70749604  1
  O  O29  1  0.18235207  0.30745473  0.29250396  1
  O  O30  1  0.03908783  0.35256576  0.56296990  1
  O  O31  1  0.53908783  0.35256576  0.43703010  1
