# generated using pymatgen
data_Na3AsO4
_symmetry_space_group_name_H-M   'P 1'
_cell_length_a   7.00635875
_cell_length_b   6.03650238
_cell_length_c   5.50106484
_cell_angle_alpha   90.00000000
_cell_angle_beta   90.00000000
_cell_angle_gamma   90.00000000
_symmetry_Int_Tables_number   1
_chemical_formula_structural   Na3AsO4
_chemical_formula_sum   'Na6 As2 O8'
_cell_volume   232.66149322
_cell_formula_units_Z   2
loop_
 _symmetry_equiv_pos_site_id
 _symmetry_equiv_pos_as_xyz
  1  'x, y, z'
loop_
 _atom_site_type_symbol
 _atom_site_label
 _atom_site_symmetry_multiplicity
 _atom_site_fract_x
 _atom_site_fract_y
 _atom_site_fract_z
 _atom_site_occupancy
  Na  Na0  1  0.00000000  0.15346929  0.49040924  1
  Na  Na1  1  0.24456025  0.32579962  0.99226857  1
  Na  Na2  1  0.25543975  0.67420038  0.49226857  1
  Na  Na3  1  0.50000000  0.84653071  0.99040924  1
  Na  Na4  1  0.74456025  0.67420038  0.49226857  1
  Na  Na5  1  0.75543975  0.32579962  0.99226857  1
  As  As6  1  0.00000000  0.82348764  0.00307005  1
  As  As7  1  0.50000000  0.17651236  0.50307005  1
  O  O8  1  -0.00000000  0.09171961  0.90660265  1
  O  O9  1  -0.00000000  0.81650610  0.31165662  1
  O  O10  1  0.29989318  0.30918398  0.40200665  1
  O  O11  1  0.20010682  0.69081602  0.90200665  1
  O  O12  1  0.50000000  0.18349390  0.81165662  1
  O  O13  1  0.50000000  0.90828039  0.40660265  1
  O  O14  1  0.79989318  0.69081602  0.90200665  1
  O  O15  1  0.70010682  0.30918398  0.40200665  1
