# generated using pymatgen
data_Na5FeHO4
_symmetry_space_group_name_H-M   'P 1'
_cell_length_a   9.98621700
_cell_length_b   10.29993300
_cell_length_c   12.04829900
_cell_angle_alpha   90.00000000
_cell_angle_beta   90.00000000
_cell_angle_gamma   90.00000000
_symmetry_Int_Tables_number   1
_chemical_formula_structural   Na5FeHO4
_chemical_formula_sum   'Na40 Fe8 H8 O32'
_cell_volume   1239.25630020
_cell_formula_units_Z   8
loop_
 _symmetry_equiv_pos_site_id
 _symmetry_equiv_pos_as_xyz
  1  'x, y, z'
loop_
 _atom_site_type_symbol
 _atom_site_label
 _atom_site_symmetry_multiplicity
 _atom_site_fract_x
 _atom_site_fract_y
 _atom_site_fract_z
 _atom_site_occupancy
  Na  Na0  1  0.98336500  0.59123200  0.20945100  1
  Na  Na1  1  0.98336500  0.90876800  0.20945100  1
  Na  Na2  1  0.07160800  0.06607000  0.41374500  1
  Na  Na3  1  0.07160800  0.43393000  0.41374500  1
  Na  Na4  1  0.08235500  0.75000000  0.44719600  1
  Na  Na5  1  0.11592300  0.25000000  0.98230700  1
  Na  Na6  1  0.13036200  0.56553300  0.99096000  1
  Na  Na7  1  0.13036200  0.93446700  0.99096000  1
  Na  Na8  1  0.21795500  0.58130100  0.67673300  1
  Na  Na9  1  0.21795500  0.91869900  0.67673300  1
  Na  Na10  1  0.28204500  0.08130100  0.17673300  1
  Na  Na11  1  0.28204500  0.41869900  0.17673300  1
  Na  Na12  1  0.36963800  0.06553300  0.49096000  1
  Na  Na13  1  0.36963800  0.43446700  0.49096000  1
  Na  Na14  1  0.38407700  0.75000000  0.48230700  1
  Na  Na15  1  0.41764500  0.25000000  0.94719600  1
  Na  Na16  1  0.42839200  0.56607000  0.91374500  1
  Na  Na17  1  0.42839200  0.93393000  0.91374500  1
  Na  Na18  1  0.51663500  0.09123200  0.70945100  1
  Na  Na19  1  0.51663500  0.40876800  0.70945100  1
  Na  Na20  1  0.48336500  0.59123200  0.29054900  1
  Na  Na21  1  0.48336500  0.90876800  0.29054900  1
  Na  Na22  1  0.57160800  0.06607000  0.08625500  1
  Na  Na23  1  0.57160800  0.43393000  0.08625500  1
  Na  Na24  1  0.58235500  0.75000000  0.05280400  1
  Na  Na25  1  0.61592300  0.25000000  0.51769300  1
  Na  Na26  1  0.63036200  0.56553300  0.50904000  1
  Na  Na27  1  0.63036200  0.93446700  0.50904000  1
  Na  Na28  1  0.71795500  0.58130100  0.82326700  1
  Na  Na29  1  0.71795500  0.91869900  0.82326700  1
  Na  Na30  1  0.78204500  0.08130100  0.32326700  1
  Na  Na31  1  0.78204500  0.41869900  0.32326700  1
  Na  Na32  1  0.86963800  0.06553300  0.00904000  1
  Na  Na33  1  0.86963800  0.43446700  0.00904000  1
  Na  Na34  1  0.88407700  0.75000000  0.01769300  1
  Na  Na35  1  0.91764500  0.25000000  0.55280400  1
  Na  Na36  1  0.92839200  0.93393000  0.58625500  1
  Na  Na37  1  0.92839200  0.56607000  0.58625500  1
  Na  Na38  1  0.01663500  0.09123200  0.79054900  1
  Na  Na39  1  0.01663500  0.40876800  0.79054900  1
  Fe  Fe40  1  0.01369400  0.25000000  0.20622100  1
  Fe  Fe41  1  0.20369600  0.25000000  0.61878300  1
  Fe  Fe42  1  0.29630400  0.75000000  0.11878300  1
  Fe  Fe43  1  0.48630600  0.75000000  0.70622100  1
  Fe  Fe44  1  0.51369400  0.25000000  0.29377900  1
  Fe  Fe45  1  0.70369600  0.25000000  0.88121700  1
  Fe  Fe46  1  0.79630400  0.75000000  0.38121700  1
  Fe  Fe47  1  0.98630600  0.75000000  0.79377900  1
  H  H48  1  0.23148200  0.62629200  0.31026800  1
  H  H49  1  0.23148200  0.87370800  0.31026800  1
  H  H50  1  0.26851800  0.12629200  0.81026800  1
  H  H51  1  0.26851800  0.37370800  0.81026800  1
  H  H52  1  0.73148200  0.62629200  0.18973200  1
  H  H53  1  0.73148200  0.87370800  0.18973200  1
  H  H54  1  0.76851800  0.12629200  0.68973200  1
  H  H55  1  0.76851800  0.37370800  0.68973200  1
  O  O56  1  0.05960600  0.75000000  0.64719800  1
  O  O57  1  0.05909100  0.40412600  0.12578600  1
  O  O58  1  0.05909100  0.09587400  0.12578600  1
  O  O59  1  0.09874900  0.40460600  0.60708900  1
  O  O60  1  0.09874900  0.09539400  0.60708900  1
  O  O61  1  0.10497700  0.75000000  0.11639700  1
  O  O62  1  0.24727200  0.08171800  0.87966200  1
  O  O63  1  0.24727200  0.41828200  0.87966200  1
  O  O64  1  0.25272800  0.58171800  0.37966200  1
  O  O65  1  0.25272800  0.91828200  0.37966200  1
  O  O66  1  0.39502300  0.25000000  0.61639700  1
  O  O67  1  0.40125100  0.59539400  0.10708900  1
  O  O68  1  0.40125100  0.90460600  0.10708900  1
  O  O69  1  0.44090900  0.59587400  0.62578600  1
  O  O70  1  0.44090900  0.90412600  0.62578600  1
  O  O71  1  0.44039400  0.25000000  0.14719800  1
  O  O72  1  0.55960600  0.75000000  0.85280200  1
  O  O73  1  0.55909100  0.09587400  0.37421400  1
  O  O74  1  0.55909100  0.40412600  0.37421400  1
  O  O75  1  0.59874900  0.09539400  0.89291100  1
  O  O76  1  0.59874900  0.40460600  0.89291100  1
  O  O77  1  0.60497700  0.75000000  0.38360300  1
  O  O78  1  0.74727200  0.08171800  0.62033800  1
  O  O79  1  0.74727200  0.41828200  0.62033800  1
  O  O80  1  0.75272800  0.58171800  0.12033800  1
  O  O81  1  0.75272800  0.91828200  0.12033800  1
  O  O82  1  0.89502300  0.25000000  0.88360300  1
  O  O83  1  0.90125100  0.90460600  0.39291100  1
  O  O84  1  0.90125100  0.59539400  0.39291100  1
  O  O85  1  0.94090900  0.90412600  0.87421400  1
  O  O86  1  0.94090900  0.59587400  0.87421400  1
  O  O87  1  0.94039400  0.25000000  0.35280200  1
