# generated using pymatgen
data_Mo3PW9N3O40
_symmetry_space_group_name_H-M   'P 1'
_cell_length_a   13.15706300
_cell_length_b   14.08642300
_cell_length_c   14.63514000
_cell_angle_alpha   90.00000000
_cell_angle_beta   90.00000000
_cell_angle_gamma   90.00000000
_symmetry_Int_Tables_number   1
_chemical_formula_structural   Mo3PW9N3O40
_chemical_formula_sum   'Mo6 P2 W18 N6 O80'
_cell_volume   2712.41764635
_cell_formula_units_Z   2
loop_
 _symmetry_equiv_pos_site_id
 _symmetry_equiv_pos_as_xyz
  1  'x, y, z'
loop_
 _atom_site_type_symbol
 _atom_site_label
 _atom_site_symmetry_multiplicity
 _atom_site_fract_x
 _atom_site_fract_y
 _atom_site_fract_z
 _atom_site_occupancy
  Mo  Mo0  1  0.79739700  0.86485700  0.78198200  1
  Mo  Mo1  1  0.79739700  0.13514300  0.78198200  1
  Mo  Mo2  1  0.20260300  0.63514300  0.28198200  1
  Mo  Mo3  1  0.20260300  0.36485700  0.28198200  1
  Mo  Mo4  1  0.92302000  0.00000000  0.97856600  1
  Mo  Mo5  1  0.07698000  0.50000000  0.47856600  1
  P  P6  1  0.64573100  0.00000000  0.94654800  1
  P  P7  1  0.35426900  0.50000000  0.44654800  1
  W  W8  1  0.53149900  0.86458500  0.76025800  1
  W  W9  1  0.53149900  0.13541500  0.76025800  1
  W  W10  1  0.46850100  0.63541500  0.26025800  1
  W  W11  1  0.46850100  0.36458500  0.26025800  1
  W  W12  1  0.64655700  0.74197900  0.94092000  1
  W  W13  1  0.64655700  0.25802100  0.94092000  1
  W  W14  1  0.35344300  0.75802100  0.44092000  1
  W  W15  1  0.35344300  0.24197900  0.44092000  1
  W  W16  1  0.77026000  0.87772400  0.13586000  1
  W  W17  1  0.77026000  0.12227600  0.13586000  1
  W  W18  1  0.22974000  0.62227600  0.63586000  1
  W  W19  1  0.22974000  0.37772400  0.63586000  1
  W  W20  1  0.40646100  0.87464300  0.98856900  1
  W  W21  1  0.40646100  0.12535700  0.98856900  1
  W  W22  1  0.59353900  0.62535700  0.48856900  1
  W  W23  1  0.59353900  0.37464300  0.48856900  1
  W  W24  1  0.52222200  0.00000000  0.16788800  1
  W  W25  1  0.47777800  0.50000000  0.66788800  1
  N  N26  1  0.17960500  0.00000000  0.68240900  1
  N  N27  1  0.82039500  0.50000000  0.18240900  1
  N  N28  1  0.15742800  0.00000000  0.23306800  1
  N  N29  1  0.84257200  0.50000000  0.73306800  1
  N  N30  1  0.65469000  0.00000000  0.47299700  1
  N  N31  1  0.34531000  0.50000000  0.97299700  1
  O  O32  1  0.65066700  0.90992600  0.88622700  1
  O  O33  1  0.65066700  0.09007400  0.88622700  1
  O  O34  1  0.34933300  0.59007400  0.38622700  1
  O  O35  1  0.34933300  0.40992600  0.38622700  1
  O  O36  1  0.54358200  0.00000000  0.99932700  1
  O  O37  1  0.45641800  0.50000000  0.49932700  1
  O  O38  1  0.73498800  0.00000000  0.01523100  1
  O  O39  1  0.26501200  0.50000000  0.51523100  1
  O  O40  1  0.88226400  0.82040800  0.70581000  1
  O  O41  1  0.88226400  0.17959200  0.70581000  1
  O  O42  1  0.11773600  0.67959200  0.20581000  1
  O  O43  1  0.11773600  0.32040800  0.20581000  1
  O  O44  1  0.05214800  0.00000000  0.97522400  1
  O  O45  1  0.94785200  0.50000000  0.47522400  1
  O  O46  1  0.46122800  0.82240800  0.66937300  1
  O  O47  1  0.46122800  0.17759200  0.66937300  1
  O  O48  1  0.53877200  0.67759200  0.16937300  1
  O  O49  1  0.53877200  0.32240800  0.16937300  1
  O  O50  1  0.64796000  0.62226000  0.96459100  1
  O  O51  1  0.64796000  0.37774000  0.96459100  1
  O  O52  1  0.35204000  0.87774000  0.46459100  1
  O  O53  1  0.35204000  0.12226000  0.46459100  1
  O  O54  1  0.30140900  0.80169800  0.99555000  1
  O  O55  1  0.30140900  0.19830200  0.99555000  1
  O  O56  1  0.69859100  0.69830200  0.49555000  1
  O  O57  1  0.69859100  0.30169800  0.49555000  1
  O  O58  1  0.48644500  0.00000000  0.28125400  1
  O  O59  1  0.51355500  0.50000000  0.78125400  1
  O  O60  1  0.80754500  0.79940200  0.21996100  1
  O  O61  1  0.80754500  0.20059800  0.21996100  1
  O  O62  1  0.19245500  0.70059800  0.71996100  1
  O  O63  1  0.19245500  0.29940200  0.71996100  1
  O  O64  1  0.67021400  0.85423900  0.71403600  1
  O  O65  1  0.67021400  0.14576100  0.71403600  1
  O  O66  1  0.32978600  0.64576100  0.21403600  1
  O  O67  1  0.32978600  0.35423900  0.21403600  1
  O  O68  1  0.76176200  0.75588400  0.85553600  1
  O  O69  1  0.76176200  0.24411600  0.85553600  1
  O  O70  1  0.23823800  0.74411600  0.35553600  1
  O  O71  1  0.23823800  0.25588400  0.35553600  1
  O  O72  1  0.56814900  0.74676900  0.82526700  1
  O  O73  1  0.56814900  0.25323100  0.82526700  1
  O  O74  1  0.43185100  0.75323100  0.32526700  1
  O  O75  1  0.43185100  0.24676900  0.32526700  1
  O  O76  1  0.43051600  0.90462700  0.11631100  1
  O  O77  1  0.43051600  0.09537300  0.11631100  1
  O  O78  1  0.56948400  0.59537300  0.61631100  1
  O  O79  1  0.56948400  0.40462700  0.61631100  1
  O  O80  1  0.34516800  0.00000000  0.97413400  1
  O  O81  1  0.65483200  0.50000000  0.47413400  1
  O  O82  1  0.89629600  0.90214100  0.06682000  1
  O  O83  1  0.89629600  0.09785900  0.06682000  1
  O  O84  1  0.10370400  0.59785900  0.56682000  1
  O  O85  1  0.10370400  0.40214100  0.56682000  1
  O  O86  1  0.79975400  0.00000000  0.19294800  1
  O  O87  1  0.20024600  0.50000000  0.69294800  1
  O  O88  1  0.88385000  0.90976100  0.88104400  1
  O  O89  1  0.88385000  0.09023900  0.88104400  1
  O  O90  1  0.11615000  0.59023900  0.38104400  1
  O  O91  1  0.11615000  0.40976100  0.38104400  1
  O  O92  1  0.79156300  0.00000000  0.75229700  1
  O  O93  1  0.20843700  0.50000000  0.25229700  1
  O  O94  1  0.72480100  0.79336300  0.03974200  1
  O  O95  1  0.72480100  0.20663700  0.03974200  1
  O  O96  1  0.27519900  0.70663700  0.53974200  1
  O  O97  1  0.27519900  0.29336300  0.53974200  1
  O  O98  1  0.52834700  0.00000000  0.74072600  1
  O  O99  1  0.47165300  0.50000000  0.24072600  1
  O  O100  1  0.43253900  0.87744000  0.85702300  1
  O  O101  1  0.43253900  0.12256000  0.85702300  1
  O  O102  1  0.56746100  0.62256000  0.35702300  1
  O  O103  1  0.56746100  0.37744000  0.35702300  1
  O  O104  1  0.52054100  0.78595100  0.99416400  1
  O  O105  1  0.52054100  0.21404900  0.99416400  1
  O  O106  1  0.47945900  0.71404900  0.49416400  1
  O  O107  1  0.47945900  0.28595100  0.49416400  1
  O  O108  1  0.62998300  0.90518100  0.16539900  1
  O  O109  1  0.62998300  0.09481900  0.16539900  1
  O  O110  1  0.37001700  0.59481900  0.66539900  1
  O  O111  1  0.37001700  0.40518100  0.66539900  1
