# generated using pymatgen
data_Li4MnFe3(BO3)4
_symmetry_space_group_name_H-M   'P 1'
_cell_length_a   5.25381338
_cell_length_b   5.22821477
_cell_length_c   20.86099616
_cell_angle_alpha   89.03816475
_cell_angle_beta   91.11459567
_cell_angle_gamma   59.80429268
_symmetry_Int_Tables_number   1
_chemical_formula_structural   Li4MnFe3(BO3)4
_chemical_formula_sum   'Li8 Mn2 Fe6 B8 O24'
_cell_volume   494.93290448
_cell_formula_units_Z   2
loop_
 _symmetry_equiv_pos_site_id
 _symmetry_equiv_pos_as_xyz
  1  'x, y, z'
loop_
 _atom_site_type_symbol
 _atom_site_label
 _atom_site_symmetry_multiplicity
 _atom_site_fract_x
 _atom_site_fract_y
 _atom_site_fract_z
 _atom_site_occupancy
  Li  Li0  1  0.32910875  0.65493080  0.66640725  1
  Li  Li1  1  0.35171633  0.66639517  0.91408884  1
  Li  Li2  1  0.32583889  0.66639201  0.16687692  1
  Li  Li3  1  0.33865058  0.67642581  0.41776759  1
  Li  Li4  1  0.64107601  0.34328286  0.79091916  1
  Li  Li5  1  0.64925363  0.36727349  0.54199662  1
  Li  Li6  1  0.65381283  0.32128224  0.29338200  1
  Li  Li7  1  0.66767078  0.34847787  0.04160729  1
  Mn  Mn8  1  0.33542331  0.00745264  0.05833012  1
  Mn  Mn9  1  0.66774559  -0.00022902  0.43276719  1
  Fe  Fe10  1  0.32597030  0.02092910  0.56032846  1
  Fe  Fe11  1  0.68771088  0.99474716  0.93374758  1
  Fe  Fe12  1  0.00208704  0.31775970  0.68493479  1
  Fe  Fe13  1  0.99382701  0.33244567  0.18371993  1
  Fe  Fe14  1  0.98885221  0.66710140  0.80791023  1
  Fe  Fe15  1  -0.00003869  0.65984704  0.30876030  1
  B  B16  1  0.01032112  0.32811326  0.93523697  1
  B  B17  1  0.99827072  0.33485124  0.43708208  1
  B  B18  1  0.32955654  0.00451887  0.81167825  1
  B  B19  1  0.32726970  0.99326071  0.31114697  1
  B  B20  1  0.66992746  0.99490590  0.68702487  1
  B  B21  1  0.66649147  0.00619707  0.18744013  1
  B  B22  1  0.98653086  0.67964905  0.56378315  1
  B  B23  1  0.00101002  0.66855172  0.06192022  1
  O  O24  1  0.06428969  0.25557177  0.79132792  1
  O  O25  1  0.06242256  0.24438695  0.29182547  1
  O  O26  1  0.26661555  0.05844433  0.95069529  1
  O  O27  1  0.02931696  0.57429602  0.91587830  1
  O  O28  1  0.24934139  0.06130415  0.45258225  1
  O  O29  1  0.02853375  0.57432872  0.41689200  1
  O  O30  1  0.57738059  0.03030488  0.82576952  1
  O  O31  1  0.25462700  0.66625798  0.57087897  1
  O  O32  1  0.57672127  0.01469135  0.32528991  1
  O  O33  1  0.27441946  0.64318346  0.06954713  1
  O  O34  1  0.34388246  0.73398234  0.81898991  1
  O  O35  1  0.34564861  0.72012047  0.31860808  1
  O  O36  1  0.64730731  0.26986053  0.69243786  1
  O  O37  1  0.64302293  0.28063850  0.19424391  1
  O  O38  1  0.73735167  0.35078106  0.94141974  1
  O  O39  1  0.42500514  0.97473422  0.66876882  1
  O  O40  1  0.72306601  0.36625635  0.44327412  1
  O  O41  1  0.42189407  0.98762919  0.16744151  1
  O  O42  1  0.96348281  0.42814110  0.57826256  1
  O  O43  1  0.96551080  0.42634828  0.07721654  1
  O  O44  1  0.73518184  0.94214304  0.54259078  1
  O  O45  1  0.75686103  0.93480800  0.04001881  1
  O  O46  1  0.94135128  0.73929786  0.70154989  1
  O  O47  1  0.93748048  0.74912671  0.20183480  1
