# generated using pymatgen
data_Na8Fe7(PO4)8
_symmetry_space_group_name_H-M   'P 1'
_cell_length_a   8.09152703
_cell_length_b   8.09152703
_cell_length_c   11.52262051
_cell_angle_alpha   74.44077360
_cell_angle_beta   74.44077360
_cell_angle_gamma   102.85885612
_symmetry_Int_Tables_number   1
_chemical_formula_structural   Na8Fe7(PO4)8
_chemical_formula_sum   'Na8 Fe7 P8 O32'
_cell_volume   663.95129199
_cell_formula_units_Z   1
loop_
 _symmetry_equiv_pos_site_id
 _symmetry_equiv_pos_as_xyz
  1  'x, y, z'
loop_
 _atom_site_type_symbol
 _atom_site_label
 _atom_site_symmetry_multiplicity
 _atom_site_fract_x
 _atom_site_fract_y
 _atom_site_fract_z
 _atom_site_occupancy
  Na  Na0  1  0.26129400  0.50740900  0.48444700  1
  Na  Na1  1  0.50740900  0.26129400  0.48444700  1
  Na  Na2  1  0.74673700  0.99856500  0.50267200  1
  Na  Na3  1  0.99856500  0.74673700  0.50267200  1
  Na  Na4  1  0.74541900  0.98777000  0.00256000  1
  Na  Na5  1  0.98777000  0.74541900  0.00256000  1
  Na  Na6  1  0.49887800  0.25957700  0.00561400  1
  Na  Na7  1  0.25957700  0.49887800  0.00561400  1
  Fe  Fe8  1  0.01445500  0.01445500  0.21690700  1
  Fe  Fe9  1  0.47668100  0.97681600  0.28639800  1
  Fe  Fe10  1  0.97681600  0.47668100  0.28639800  1
  Fe  Fe11  1  0.02553400  0.02553400  0.71312600  1
  Fe  Fe12  1  0.52594100  0.52594100  0.71253900  1
  Fe  Fe13  1  0.49398300  0.99379600  0.78370200  1
  Fe  Fe14  1  0.99379600  0.49398300  0.78370200  1
  P  P15  1  0.78899500  0.27625000  0.11201700  1
  P  P16  1  0.27625000  0.78899500  0.11201700  1
  P  P17  1  0.65762300  0.65762300  0.39136200  1
  P  P18  1  0.14383600  0.14383600  0.39977500  1
  P  P19  1  0.35169200  0.85454800  0.60554500  1
  P  P20  1  0.85454800  0.35169200  0.60554500  1
  P  P21  1  0.71294500  0.71294500  0.88653700  1
  P  P22  1  0.21145600  0.21145600  0.89133100  1
  O  O23  1  0.19268500  0.19268500  0.03293100  1
  O  O24  1  0.68987200  0.68987200  0.02534800  1
  O  O25  1  0.92722300  0.42812600  0.12813000  1
  O  O26  1  0.42812600  0.92722300  0.12813000  1
  O  O27  1  0.58571000  0.24294100  0.18926300  1
  O  O28  1  0.80147200  0.08305200  0.17277000  1
  O  O29  1  0.24294100  0.58571000  0.18926300  1
  O  O30  1  0.08305200  0.80147200  0.17277000  1
  O  O31  1  0.21789000  0.01793200  0.32605200  1
  O  O32  1  0.01793200  0.21789000  0.32605200  1
  O  O33  1  0.53197800  0.73834700  0.32646000  1
  O  O34  1  0.73834700  0.53197800  0.32646000  1
  O  O35  1  0.29036900  0.29036900  0.40269100  1
  O  O36  1  0.81108400  0.81108400  0.39021200  1
  O  O37  1  0.97508800  0.47028900  0.46053100  1
  O  O38  1  0.47028900  0.97508800  0.46053100  1
  O  O39  1  0.01282300  0.01282300  0.53613200  1
  O  O40  1  0.53280900  0.53280900  0.53165500  1
  O  O41  1  0.69815700  0.20134900  0.60830300  1
  O  O42  1  0.20134900  0.69815700  0.60830300  1
  O  O43  1  0.98402200  0.28565700  0.67217900  1
  O  O44  1  0.48266800  0.79292000  0.67217900  1
  O  O45  1  0.28565700  0.98402200  0.67217900  1
  O  O46  1  0.79292000  0.48266800  0.67217900  1
  O  O47  1  0.91024400  0.71378600  0.81428300  1
  O  O48  1  0.71378600  0.91024400  0.81428300  1
  O  O49  1  0.21119800  0.40809100  0.82341900  1
  O  O50  1  0.40809100  0.21119800  0.82341900  1
  O  O51  1  0.06244200  0.06244200  0.88464200  1
  O  O52  1  0.56442700  0.56442700  0.87555400  1
  O  O53  1  0.81282000  0.31231000  0.96925900  1
  O  O54  1  0.31231000  0.81282000  0.96925900  1
