# generated using pymatgen
data_Ba2As6O11
_symmetry_space_group_name_H-M   'P 1'
_cell_length_a   8.36627646
_cell_length_b   9.10331494
_cell_length_c   9.35111814
_cell_angle_alpha   73.86464815
_cell_angle_beta   72.78675404
_cell_angle_gamma   75.91311286
_symmetry_Int_Tables_number   1
_chemical_formula_structural   Ba2As6O11
_chemical_formula_sum   'Ba4 As12 O22'
_cell_volume   643.33468403
_cell_formula_units_Z   2
loop_
 _symmetry_equiv_pos_site_id
 _symmetry_equiv_pos_as_xyz
  1  'x, y, z'
loop_
 _atom_site_type_symbol
 _atom_site_label
 _atom_site_symmetry_multiplicity
 _atom_site_fract_x
 _atom_site_fract_y
 _atom_site_fract_z
 _atom_site_occupancy
  Ba  Ba0  1  0.96955201  0.56121676  0.72573436  1
  Ba  Ba1  1  0.54084625  0.42155741  0.76763376  1
  Ba  Ba2  1  0.45915375  0.57844259  0.23236624  1
  Ba  Ba3  1  0.03044799  0.43878324  0.27426564  1
  As  As4  1  0.58328775  0.91275294  0.81698672  1
  As  As5  1  0.90240727  0.10361718  0.69284005  1
  As  As6  1  0.20014228  0.73556360  0.93842243  1
  As  As7  1  0.70537405  0.74285233  0.43167958  1
  As  As8  1  0.18898585  0.17608899  0.93163726  1
  As  As9  1  0.30312371  0.83020299  0.56938849  1
  As  As10  1  0.69687629  0.16979701  0.43061151  1
  As  As11  1  0.81101415  0.82391101  0.06836274  1
  As  As12  1  0.29462595  0.25714767  0.56832042  1
  As  As13  1  0.79985772  0.26443640  0.06157757  1
  As  As14  1  0.09759273  0.89638282  0.30715995  1
  As  As15  1  0.41671225  0.08724706  0.18301328  1
  O  O16  1  0.98376092  0.68562603  0.98394158  1
  O  O17  1  0.65328596  0.79467209  0.99042916  1
  O  O18  1  0.71824019  0.81402163  0.68640600  1
  O  O19  1  0.69463704  0.43915341  0.98278621  1
  O  O20  1  0.90059355  0.26102305  0.75815611  1
  O  O21  1  0.79317115  0.56525558  0.52095564  1
  O  O22  1  0.68120585  0.08133682  0.79047924  1
  O  O23  1  0.84834691  0.21237025  0.50772960  1
  O  O24  1  0.25141538  0.68673804  0.74402429  1
  O  O25  1  0.48425846  0.69773071  0.48858994  1
  O  O26  1  0.74261757  0.68537750  0.24213997  1
  O  O27  1  0.25738243  0.31462250  0.75786003  1
  O  O28  1  0.51574154  0.30226929  0.51141006  1
  O  O29  1  0.74858462  0.31326196  0.25597571  1
  O  O30  1  0.15165309  0.78762975  0.49227040  1
  O  O31  1  0.31879415  0.91866318  0.20952076  1
  O  O32  1  0.20682885  0.43474442  0.47904436  1
  O  O33  1  0.09940645  0.73897695  0.24184389  1
  O  O34  1  0.30536296  0.56084659  0.01721379  1
  O  O35  1  0.28175981  0.18597837  0.31359400  1
  O  O36  1  0.34671404  0.20532791  0.00957084  1
  O  O37  1  0.01623908  0.31437397  0.01605842  1
