# generated using pymatgen
data_Mn7P6(HO6)4
_symmetry_space_group_name_H-M   'P 1'
_cell_length_a   6.54110443
_cell_length_b   8.04836855
_cell_length_c   9.80234706
_cell_angle_alpha   104.54389560
_cell_angle_beta   109.34720102
_cell_angle_gamma   101.34929780
_symmetry_Int_Tables_number   1
_chemical_formula_structural   Mn7P6(HO6)4
_chemical_formula_sum   'Mn7 P6 H4 O24'
_cell_volume   448.60868656
_cell_formula_units_Z   1
loop_
 _symmetry_equiv_pos_site_id
 _symmetry_equiv_pos_as_xyz
  1  'x, y, z'
loop_
 _atom_site_type_symbol
 _atom_site_label
 _atom_site_symmetry_multiplicity
 _atom_site_fract_x
 _atom_site_fract_y
 _atom_site_fract_z
 _atom_site_occupancy
  Mn  Mn0  1  0.00000000  0.00000000  0.00000000  1
  Mn  Mn1  1  0.03714710  0.71483761  0.51107744  1
  Mn  Mn2  1  0.96285290  0.28516239  0.48892256  1
  Mn  Mn3  1  0.28308803  0.81770553  0.28540743  1
  Mn  Mn4  1  0.71691197  0.18229447  0.71459257  1
  Mn  Mn5  1  0.38064942  0.45619767  0.10710534  1
  Mn  Mn6  1  0.61935058  0.54380233  0.89289466  1
  P  P7  1  0.22909389  0.14190502  0.78063803  1
  P  P8  1  0.77090611  0.85809498  0.21936197  1
  P  P9  1  0.59119362  0.76966762  0.61605721  1
  P  P10  1  0.40880638  0.23033238  0.38394279  1
  P  P11  1  0.08450563  0.58090843  0.82403868  1
  P  P12  1  0.91549437  0.41909157  0.17596132  1
  H  H13  1  0.58485527  0.50590169  0.40328319  1
  H  H14  1  0.41514473  0.49409831  0.59671681  1
  H  H15  1  0.17891863  0.87430266  0.80851513  1
  H  H16  1  0.82108137  0.12569734  0.19148487  1
  O  O17  1  0.29916049  0.53757006  0.90848053  1
  O  O18  1  0.70083951  0.46242994  0.09151947  1
  O  O19  1  0.12459744  0.53907988  0.16858538  1
  O  O20  1  0.87540256  0.46092012  0.83141462  1
  O  O21  1  0.02243943  0.16623765  0.66613419  1
  O  O22  1  0.97756057  0.83376235  0.33386581  1
  O  O23  1  0.54967418  0.75944549  0.22264677  1
  O  O24  1  0.45032582  0.24055451  0.77735323  1
  O  O25  1  0.10690800  0.78046344  0.89928076  1
  O  O26  1  0.89309200  0.21953656  0.10071924  1
  O  O27  1  0.49181969  0.38254906  0.31999789  1
  O  O28  1  0.50818031  0.61745094  0.68000211  1
  O  O29  1  0.71742025  0.69717255  0.52196935  1
  O  O30  1  0.28257975  0.30282745  0.47803065  1
  O  O31  1  0.26719882  0.06287296  0.24182951  1
  O  O32  1  0.73280118  0.93712704  0.75817049  1
  O  O33  1  0.61843880  0.19844127  0.48919254  1
  O  O34  1  0.38156120  0.80155873  0.51080746  1
  O  O35  1  0.05189708  0.54484354  0.65564852  1
  O  O36  1  0.94810292  0.45515646  0.34435148  1
  O  O37  1  0.22244355  0.18643262  0.94107636  1
  O  O38  1  0.77755645  0.81356738  0.05892364  1
  O  O39  1  0.79106015  0.06545944  0.26879061  1
  O  O40  1  0.20893985  0.93454056  0.73120939  1
