# generated using pymatgen
data_Li5Cr2Fe3(PO4)6
_symmetry_space_group_name_H-M   'P 1'
_cell_length_a   8.43117580
_cell_length_b   8.81815740
_cell_length_c   8.60434354
_cell_angle_alpha   60.94258020
_cell_angle_beta   62.22003844
_cell_angle_gamma   61.57224729
_symmetry_Int_Tables_number   1
_chemical_formula_structural   Li5Cr2Fe3(PO4)6
_chemical_formula_sum   'Li5 Cr2 Fe3 P6 O24'
_cell_volume   468.24985684
_cell_formula_units_Z   1
loop_
 _symmetry_equiv_pos_site_id
 _symmetry_equiv_pos_as_xyz
  1  'x, y, z'
loop_
 _atom_site_type_symbol
 _atom_site_label
 _atom_site_symmetry_multiplicity
 _atom_site_fract_x
 _atom_site_fract_y
 _atom_site_fract_z
 _atom_site_occupancy
  Li  Li0  1  0.75368000  0.14319300  0.35627600  1
  Li  Li1  1  0.19452100  0.84997800  0.66984600  1
  Li  Li2  1  0.66346900  0.18103800  0.85217700  1
  Li  Li3  1  0.85742500  0.67007900  0.18514400  1
  Li  Li4  1  0.84627100  0.83072400  0.83962100  1
  Cr  Cr5  1  0.00543000  0.99742100  0.99534400  1
  Cr  Cr6  1  0.49400700  0.50567100  0.49872300  1
  Fe  Fe7  1  0.14747900  0.14961400  0.14041200  1
  Fe  Fe8  1  0.35206600  0.35677200  0.35544500  1
  Fe  Fe9  1  0.64483800  0.65578800  0.65587900  1
  P  P10  1  0.05665800  0.75023100  0.45285800  1
  P  P11  1  0.44509800  0.04769200  0.75810900  1
  P  P12  1  0.75167200  0.45508300  0.05706400  1
  P  P13  1  0.25527200  0.53858500  0.95508900  1
  P  P14  1  0.55396900  0.96573000  0.25765900  1
  P  P15  1  0.94774200  0.25404900  0.53595100  1
  O  O16  1  0.10384200  0.33361700  0.46608300  1
  O  O17  1  0.33899200  0.48639600  0.10449800  1
  O  O18  1  0.05161100  0.91539600  0.26214200  1
  O  O19  1  0.52972200  0.10992800  0.32523500  1
  O  O20  1  0.03750000  0.81027700  0.59998300  1
  O  O21  1  0.25166900  0.59283400  0.42311800  1
  O  O22  1  0.24644900  0.06662900  0.91304700  1
  O  O23  1  0.43046100  0.23254400  0.59034900  1
  O  O24  1  0.19638500  0.38291100  0.98938600  1
  O  O25  1  0.59655400  0.41890800  0.25656900  1
  O  O26  1  0.09294400  0.72444000  0.94911400  1
  O  O27  1  0.38531700  0.01745400  0.19755900  1
  O  O28  1  0.60017200  0.01781100  0.82295800  1
  O  O29  1  0.90279300  0.25858500  0.07848000  1
  O  O30  1  0.40403900  0.57610700  0.75196900  1
  O  O31  1  0.81205600  0.60198600  0.03444300  1
  O  O32  1  0.57531500  0.76954000  0.40896600  1
  O  O33  1  0.74530100  0.94925700  0.09445300  1
  O  O34  1  0.74488600  0.40248100  0.57210300  1
  O  O35  1  0.96590800  0.18907900  0.38967900  1
  O  O36  1  0.48358800  0.88834800  0.70145700  1
  O  O37  1  0.95261300  0.09709800  0.72839100  1
  O  O38  1  0.68950900  0.49873900  0.89401400  1
  O  O39  1  0.89277600  0.68498900  0.50340800  1
