# generated using pymatgen
data_Cs3HoO3
_symmetry_space_group_name_H-M   'P 1'
_cell_length_a   7.53400234
_cell_length_b   8.21160707
_cell_length_c   12.09431605
_cell_angle_alpha   84.80416554
_cell_angle_beta   90.00000000
_cell_angle_gamma   90.00000000
_symmetry_Int_Tables_number   1
_chemical_formula_structural   Cs3HoO3
_chemical_formula_sum   'Cs12 Ho4 O12'
_cell_volume   745.15569564
_cell_formula_units_Z   4
loop_
 _symmetry_equiv_pos_site_id
 _symmetry_equiv_pos_as_xyz
  1  'x, y, z'
loop_
 _atom_site_type_symbol
 _atom_site_label
 _atom_site_symmetry_multiplicity
 _atom_site_fract_x
 _atom_site_fract_y
 _atom_site_fract_z
 _atom_site_occupancy
  Cs  Cs0  1  0.33947449  0.35128944  0.07715676  1
  Cs  Cs1  1  0.62129414  0.93987220  0.15589571  1
  Cs  Cs2  1  0.81737688  0.37869925  0.19052443  1
  Cs  Cs3  1  0.31737688  0.62130075  0.30947557  1
  Cs  Cs4  1  0.12129414  0.06012780  0.34410429  1
  Cs  Cs5  1  0.83947449  0.64871056  0.42284324  1
  Cs  Cs6  1  0.16052551  0.35128944  0.57715676  1
  Cs  Cs7  1  0.87870586  0.93987220  0.65589571  1
  Cs  Cs8  1  0.68262312  0.37869925  0.69052443  1
  Cs  Cs9  1  0.18262312  0.62130075  0.80947557  1
  Cs  Cs10  1  0.37870586  0.06012780  0.84410429  1
  Cs  Cs11  1  0.66052551  0.64871056  0.92284324  1
  Ho  Ho12  1  0.08686655  0.84345951  0.06847552  1
  Ho  Ho13  1  0.58686655  0.15654049  0.43152448  1
  Ho  Ho14  1  0.41313345  0.84345951  0.56847552  1
  Ho  Ho15  1  0.91313345  0.15654049  0.93152448  1
  O  O16  1  0.34508815  0.75280487  0.04715454  1
  O  O17  1  0.05407134  0.10416103  0.08763334  1
  O  O18  1  0.94545034  0.70312388  0.19167457  1
  O  O19  1  0.44545034  0.29687612  0.30832543  1
  O  O20  1  0.55407134  0.89583897  0.41236666  1
  O  O21  1  0.84508815  0.24719513  0.45284546  1
  O  O22  1  0.15491185  0.75280487  0.54715454  1
  O  O23  1  0.44592866  0.10416103  0.58763334  1
  O  O24  1  0.55454966  0.70312388  0.69167457  1
  O  O25  1  0.05454966  0.29687612  0.80832543  1
  O  O26  1  0.94592866  0.89583897  0.91236666  1
  O  O27  1  0.65491185  0.24719513  0.95284546  1
