# generated using pymatgen
data_Na2Bi4O7
_symmetry_space_group_name_H-M   'P 1'
_cell_length_a   10.21390576
_cell_length_b   10.21390561
_cell_length_c   5.87822982
_cell_angle_alpha   74.76081792
_cell_angle_beta   74.76038697
_cell_angle_gamma   114.74533288
_symmetry_Int_Tables_number   1
_chemical_formula_structural   Na2Bi4O7
_chemical_formula_sum   'Na4 Bi8 O14'
_cell_volume   486.26520754
_cell_formula_units_Z   2
loop_
 _symmetry_equiv_pos_site_id
 _symmetry_equiv_pos_as_xyz
  1  'x, y, z'
loop_
 _atom_site_type_symbol
 _atom_site_label
 _atom_site_symmetry_multiplicity
 _atom_site_fract_x
 _atom_site_fract_y
 _atom_site_fract_z
 _atom_site_occupancy
  Na  Na0  1  0.48466461  0.65589644  0.43233533  1
  Na  Na1  1  0.34410740  0.51533699  0.06765647  1
  Na  Na2  1  0.65589549  0.48466470  0.93233552  1
  Na  Na3  1  0.51533651  0.34410355  0.56766184  1
  Bi  Bi4  1  0.61238898  0.11776920  0.16771362  1
  Bi  Bi5  1  0.26787770  0.12750147  0.23872987  1
  Bi  Bi6  1  0.11777358  0.61238913  0.66770194  1
  Bi  Bi7  1  0.12750079  0.26787411  0.73872878  1
  Bi  Bi8  1  0.87249799  0.73212184  0.26127162  1
  Bi  Bi9  1  0.88223069  0.38760801  0.33229470  1
  Bi  Bi10  1  0.73212101  0.87249756  0.76127142  1
  Bi  Bi11  1  0.38760811  0.88222758  0.83230088  1
  O  O12  1  0.49510209  0.21595507  0.96752616  1
  O  O13  1  0.37175550  0.99254377  0.45363385  1
  O  O14  1  0.71135679  0.67845984  0.09545750  1
  O  O15  1  0.68092353  0.31908061  0.24999664  1
  O  O16  1  0.21596165  0.49510458  0.46752601  1
  O  O17  1  0.99254344  0.37176032  0.95362707  1
  O  O18  1  0.32154230  0.28864310  0.40454113  1
  O  O19  1  0.67845764  0.71135611  0.59545867  1
  O  O20  1  0.00745992  0.62824213  0.04637200  1
  O  O21  1  0.78404342  0.50489659  0.53247331  1
  O  O22  1  0.31907923  0.68092596  0.74999321  1
  O  O23  1  0.28864331  0.32154056  0.90453815  1
  O  O24  1  0.62823736  0.00746027  0.54638133  1
  O  O25  1  0.50489097  0.78403750  0.03247297  1
