# generated using pymatgen
data_Nd2NiO4
_symmetry_space_group_name_H-M   'P 1'
_cell_length_a   3.85265017
_cell_length_b   6.74897007
_cell_length_c   4.00565075
_cell_angle_alpha   72.73084402
_cell_angle_beta   90.00033330
_cell_angle_gamma   106.60801446
_symmetry_Int_Tables_number   1
_chemical_formula_structural   Nd2NiO4
_chemical_formula_sum   'Nd2 Ni1 O4'
_cell_volume   94.89784183
_cell_formula_units_Z   1
loop_
 _symmetry_equiv_pos_site_id
 _symmetry_equiv_pos_as_xyz
  1  'x, y, z'
loop_
 _atom_site_type_symbol
 _atom_site_label
 _atom_site_symmetry_multiplicity
 _atom_site_fract_x
 _atom_site_fract_y
 _atom_site_fract_z
 _atom_site_occupancy
  Nd  Nd0  1  0.64583294  0.29990791  0.34871402  1
  Nd  Nd1  1  0.34772975  0.70330767  0.64699677  1
  Ni  Ni2  1  0.99759114  0.00166962  0.99751398  1
  O  O3  1  0.49722899  0.00161154  0.99738868  1
  O  O4  1  0.74211118  0.49240721  0.75250182  1
  O  O5  1  0.99686585  0.00161967  0.49737659  1
  O  O6  1  0.25138815  0.51082638  0.24329513  1
