# generated using pymatgen
data_Na3MnAsCO7
_symmetry_space_group_name_H-M   'P 1'
_cell_length_a   8.79009073
_cell_length_b   8.79053558
_cell_length_c   10.61981011
_cell_angle_alpha   107.29096480
_cell_angle_beta   107.27644458
_cell_angle_gamma   106.09262574
_symmetry_Int_Tables_number   1
_chemical_formula_structural   Na3MnAsCO7
_chemical_formula_sum   'Na12 Mn4 As4 C4 O28'
_cell_volume   685.41931504
_cell_formula_units_Z   4
loop_
 _symmetry_equiv_pos_site_id
 _symmetry_equiv_pos_as_xyz
  1  'x, y, z'
loop_
 _atom_site_type_symbol
 _atom_site_label
 _atom_site_symmetry_multiplicity
 _atom_site_fract_x
 _atom_site_fract_y
 _atom_site_fract_z
 _atom_site_occupancy
  Na  Na0  1  0.54450000  0.29456900  0.08042600  1
  Na  Na1  1  0.04447900  0.79458800  0.08042600  1
  Na  Na2  1  0.95543100  0.20534300  0.91960900  1
  Na  Na3  1  0.45544600  0.70535000  0.91958000  1
  Na  Na4  1  0.25150800  0.24830100  0.25380600  1
  Na  Na5  1  0.75160200  0.74829800  0.25377200  1
  Na  Na6  1  0.49829500  0.00151800  0.25382200  1
  Na  Na7  1  0.99832000  0.50145900  0.25385400  1
  Na  Na8  1  0.00169300  0.49856100  0.74622000  1
  Na  Na9  1  0.50166400  0.99852400  0.74620700  1
  Na  Na10  1  0.24850300  0.25169700  0.74626600  1
  Na  Na11  1  0.74846100  0.75168200  0.74626600  1
  Mn  Mn12  1  0.44046000  0.69039900  0.35198300  1
  Mn  Mn13  1  0.05995600  0.81006600  0.64791400  1
  Mn  Mn14  1  0.94032700  0.19029300  0.35214200  1
  Mn  Mn15  1  0.56014900  0.31013700  0.64806900  1
  As  As16  1  0.68142000  0.43144200  0.41272000  1
  As  As17  1  0.18143200  0.93143900  0.41273100  1
  As  As18  1  0.81863300  0.06860500  0.58731000  1
  As  As19  1  0.31860600  0.56859300  0.58722400  1
  C  C20  1  0.76979800  0.01983900  0.05739600  1
  C  C21  1  0.26978000  0.51981500  0.05735100  1
  C  C22  1  0.73012400  0.48008600  0.94263700  1
  C  C23  1  0.23010800  0.98008600  0.94262500  1
  O  O24  1  0.31190900  0.06180500  0.08254000  1
  O  O25  1  0.81192600  0.56180900  0.08255100  1
  O  O26  1  0.18799600  0.43812000  0.91744100  1
  O  O27  1  0.68800600  0.93812500  0.91747200  1
  O  O28  1  0.91140700  0.16135200  0.11676100  1
  O  O29  1  0.41140100  0.66133700  0.11670600  1
  O  O30  1  0.58852600  0.33858800  0.88326400  1
  O  O31  1  0.08851500  0.83857900  0.88326700  1
  O  O32  1  0.71146600  0.96145600  0.14091500  1
  O  O33  1  0.21144900  0.46143100  0.14086400  1
  O  O34  1  0.78847000  0.53847100  0.85910700  1
  O  O35  1  0.28846000  0.03849400  0.85910900  1
  O  O36  1  0.52838000  0.27834900  0.43293000  1
  O  O37  1  0.02838400  0.77833700  0.43293800  1
  O  O38  1  0.97157900  0.22162600  0.56700300  1
  O  O39  1  0.47147700  0.72152000  0.56679100  1
  O  O40  1  0.66955400  0.91945300  0.41614500  1
  O  O41  1  0.16939000  0.41930100  0.41614800  1
  O  O42  1  0.83051200  0.58062600  0.58387400  1
  O  O43  1  0.33053000  0.08061300  0.58387900  1
  O  O44  1  0.57463300  0.51837000  0.30835400  1
  O  O45  1  0.07459000  0.01834600  0.30838200  1
  O  O46  1  0.76859100  0.32483900  0.30844700  1
  O  O47  1  0.26859000  0.82488800  0.30841900  1
  O  O48  1  0.73137000  0.17508800  0.69156400  1
  O  O49  1  0.23143300  0.67514900  0.69154000  1
  O  O50  1  0.92535500  0.98158200  0.69162300  1
  O  O51  1  0.42540900  0.48165600  0.69160700  1
