# generated using pymatgen
data_La2B4O9
_symmetry_space_group_name_H-M   'P 1'
_cell_length_a   6.34517627
_cell_length_b   6.71050088
_cell_length_c   7.70349310
_cell_angle_alpha   101.79099920
_cell_angle_beta   96.56899224
_cell_angle_gamma   102.60250196
_symmetry_Int_Tables_number   1
_chemical_formula_structural   La2B4O9
_chemical_formula_sum   'La4 B8 O18'
_cell_volume   308.98261827
_cell_formula_units_Z   2
loop_
 _symmetry_equiv_pos_site_id
 _symmetry_equiv_pos_as_xyz
  1  'x, y, z'
loop_
 _atom_site_type_symbol
 _atom_site_label
 _atom_site_symmetry_multiplicity
 _atom_site_fract_x
 _atom_site_fract_y
 _atom_site_fract_z
 _atom_site_occupancy
  La  La0  1  0.11418044  0.32082931  0.64318550  1
  La  La1  1  0.45792985  0.90665153  0.71870212  1
  La  La2  1  0.54207015  0.09334847  0.28129788  1
  La  La3  1  0.88581956  0.67917069  0.35681450  1
  B  B4  1  0.00682019  0.84438436  0.81826829  1
  B  B5  1  0.27533286  0.66473870  0.01956204  1
  B  B6  1  0.37089709  0.64202486  0.34243477  1
  B  B7  1  0.33723720  0.32984668  0.07536542  1
  B  B8  1  0.66276280  0.67015332  0.92463458  1
  B  B9  1  0.62910291  0.35797514  0.65756523  1
  B  B10  1  0.72466714  0.33526130  0.98043796  1
  B  B11  1  0.99317981  0.15561564  0.18173171  1
  O  O12  1  0.06124552  0.94240598  0.68421787  1
  O  O13  1  0.14552546  0.72304988  0.86910981  1
  O  O14  1  0.23134976  0.43868052  0.96536981  1
  O  O15  1  0.22346978  0.59359634  0.46887976  1
  O  O16  1  0.24209348  0.73204906  0.20489410  1
  O  O17  1  0.18235860  0.14861422  0.11421403  1
  O  O18  1  0.43183773  0.18957940  0.56587953  1
  O  O19  1  0.49309263  0.22553527  0.98644341  1
  O  O20  1  0.54832586  0.53363790  0.75082675  1
  O  O21  1  0.45167414  0.46636210  0.24917325  1
  O  O22  1  0.50690737  0.77446473  0.01355659  1
  O  O23  1  0.56816227  0.81042060  0.43412047  1
  O  O24  1  0.81764140  0.85138578  0.88578597  1
  O  O25  1  0.75790652  0.26795094  0.79510590  1
  O  O26  1  0.77653022  0.40640366  0.53112024  1
  O  O27  1  0.76865024  0.56131948  0.03463019  1
  O  O28  1  0.85447454  0.27695012  0.13089019  1
  O  O29  1  0.93875448  0.05759402  0.31578213  1
