# generated using pymatgen
data_MnP2O7
_symmetry_space_group_name_H-M   'P 1'
_cell_length_a   7.66779061
_cell_length_b   7.01478026
_cell_length_c   9.27668986
_cell_angle_alpha   66.80832671
_cell_angle_beta   90.00000000
_cell_angle_gamma   90.00000000
_symmetry_Int_Tables_number   1
_chemical_formula_structural   MnP2O7
_chemical_formula_sum   'Mn4 P8 O28'
_cell_volume   458.65260373
_cell_formula_units_Z   4
loop_
 _symmetry_equiv_pos_site_id
 _symmetry_equiv_pos_as_xyz
  1  'x, y, z'
loop_
 _atom_site_type_symbol
 _atom_site_label
 _atom_site_symmetry_multiplicity
 _atom_site_fract_x
 _atom_site_fract_y
 _atom_site_fract_z
 _atom_site_occupancy
  Mn  Mn0  1  -0.00000000  0.50000000  0.50000000  1
  Mn  Mn1  1  -0.00000000  -0.00000000  0.00000000  1
  Mn  Mn2  1  0.50000000  -0.00000000  0.50000000  1
  Mn  Mn3  1  0.50000000  0.50000000  0.00000000  1
  P  P4  1  0.74573891  0.65453720  0.20763215  1
  P  P5  1  0.24573891  0.34546280  0.29236785  1
  P  P6  1  0.82425067  0.06819481  0.68128972  1
  P  P7  1  0.32425067  0.93180519  0.81871028  1
  P  P8  1  0.67574933  0.06819481  0.18128972  1
  P  P9  1  0.17574933  0.93180519  0.31871028  1
  P  P10  1  0.75426109  0.65453720  0.70763215  1
  P  P11  1  0.25426109  0.34546280  0.79236785  1
  O  O12  1  0.89997716  0.73755107  0.09869477  1
  O  O13  1  0.79582723  0.54591475  0.37881219  1
  O  O14  1  0.13440092  0.49274162  0.33513416  1
  O  O15  1  0.63440092  0.50725838  0.16486584  1
  O  O16  1  0.37737752  0.15541011  0.80941704  1
  O  O17  1  0.29582723  0.45408525  0.12118781  1
  O  O18  1  0.96278358  0.21039633  0.57626867  1
  O  O19  1  0.82193160  0.06384881  0.84619377  1
  O  O20  1  0.39997716  0.26244893  0.40130523  1
  O  O21  1  0.64022035  0.11007533  0.61492876  1
  O  O22  1  0.14022035  0.88992467  0.88507124  1
  O  O23  1  0.12262248  0.15541011  0.30941704  1
  O  O24  1  0.32193160  0.93615119  0.65380623  1
  O  O25  1  0.46278358  0.78960367  0.92373133  1
  O  O26  1  0.53721642  0.21039633  0.07626867  1
  O  O27  1  0.67806840  0.06384881  0.34619377  1
  O  O28  1  0.87737752  0.84458989  0.69058296  1
  O  O29  1  0.85977965  0.11007533  0.11492876  1
  O  O30  1  0.35977965  0.88992467  0.38507124  1
  O  O31  1  0.60002284  0.73755107  0.59869477  1
  O  O32  1  0.17806840  0.93615119  0.15380623  1
  O  O33  1  0.03721642  0.78960367  0.42373133  1
  O  O34  1  0.70417277  0.54591475  0.87881219  1
  O  O35  1  0.62262248  0.84458989  0.19058296  1
  O  O36  1  0.36559908  0.49274162  0.83513416  1
  O  O37  1  0.86559908  0.50725838  0.66486584  1
  O  O38  1  0.20417277  0.45408525  0.62118781  1
  O  O39  1  0.10002284  0.26244893  0.90130523  1
