# generated using pymatgen
data_Er3TaO7
_symmetry_space_group_name_H-M   'P 1'
_cell_length_a   6.27168544
_cell_length_b   6.38352321
_cell_length_c   7.47358449
_cell_angle_alpha   106.80364455
_cell_angle_beta   89.71228567
_cell_angle_gamma   97.73949774
_symmetry_Int_Tables_number   1
_chemical_formula_structural   Er3TaO7
_chemical_formula_sum   'Er6 Ta2 O14'
_cell_volume   283.64180904
_cell_formula_units_Z   2
loop_
 _symmetry_equiv_pos_site_id
 _symmetry_equiv_pos_as_xyz
  1  'x, y, z'
loop_
 _atom_site_type_symbol
 _atom_site_label
 _atom_site_symmetry_multiplicity
 _atom_site_fract_x
 _atom_site_fract_y
 _atom_site_fract_z
 _atom_site_occupancy
  Er  Er0  1  0.73555918  0.46198554  0.11553421  1
  Er  Er1  1  0.73296077  0.45563057  0.60815406  1
  Er  Er2  1  0.54451861  0.99251095  0.75024485  1
  Er  Er3  1  0.45548139  0.00748905  0.24975515  1
  Er  Er4  1  0.26703923  0.54436943  0.39184594  1
  Er  Er5  1  0.26444082  0.53801446  0.88446579  1
  Ta  Ta6  1  0.00000000  -0.00000000  -0.00000000  1
  Ta  Ta7  1  0.00000000  -0.00000000  0.50000000  1
  O  O8  1  0.70703175  0.06918414  0.48129976  1
  O  O9  1  0.92017859  0.67589672  0.95189973  1
  O  O10  1  0.70648565  0.07361272  0.05240880  1
  O  O11  1  0.92646335  0.66559131  0.39036646  1
  O  O12  1  0.90628175  0.95029734  0.73687516  1
  O  O13  1  0.55574044  0.34703778  0.83417798  1
  O  O14  1  0.53914790  0.36125318  0.34138897  1
  O  O15  1  0.46085210  0.63874682  0.65861103  1
  O  O16  1  0.44425956  0.65296222  0.16582202  1
  O  O17  1  0.09371825  0.04970266  0.26312484  1
  O  O18  1  0.07353665  0.33440869  0.60963354  1
  O  O19  1  0.29351435  0.92638728  0.94759120  1
  O  O20  1  0.07982141  0.32410328  0.04810027  1
  O  O21  1  0.29296825  0.93081586  0.51870024  1
