# generated using pymatgen
data_NdPb7F17
_symmetry_space_group_name_H-M   'P 1'
_cell_length_a   4.17827000
_cell_length_b   4.21148785
_cell_length_c   28.02697037
_cell_angle_alpha   94.15683414
_cell_angle_beta   89.86081924
_cell_angle_gamma   119.71534758
_symmetry_Int_Tables_number   1
_chemical_formula_structural   NdPb7F17
_chemical_formula_sum   'Nd1 Pb7 F17'
_cell_volume   426.88252430
_cell_formula_units_Z   1
loop_
 _symmetry_equiv_pos_site_id
 _symmetry_equiv_pos_as_xyz
  1  'x, y, z'
loop_
 _atom_site_type_symbol
 _atom_site_label
 _atom_site_symmetry_multiplicity
 _atom_site_fract_x
 _atom_site_fract_y
 _atom_site_fract_z
 _atom_site_occupancy
  Nd  Nd0  1  0.39409900  0.52165500  0.11869500  1
  Pb  Pb1  1  0.99847900  0.98528900  0.99897800  1
  Pb  Pb2  1  0.69789200  0.54959500  0.87252300  1
  Pb  Pb3  1  0.28205300  0.02431600  0.74663200  1
  Pb  Pb4  1  0.50275800  0.00654300  0.49678100  1
  Pb  Pb5  1  0.88224800  0.50897100  0.62177100  1
  Pb  Pb6  1  0.12782300  0.50562900  0.37238200  1
  Pb  Pb7  1  0.75465200  0.00985900  0.24536300  1
  F  F8  1  0.70203500  0.43995900  0.96322400  1
  F  F9  1  0.93296600  0.39989200  0.71404200  1
  F  F10  1  0.03212600  0.16678700  0.90495300  1
  F  F11  1  0.34547300  0.91738000  0.84054900  1
  F  F12  1  0.53820400  0.88581200  0.58981400  1
  F  F13  1  0.62622300  0.65108200  0.77713900  1
  F  F14  1  0.15935500  0.38490900  0.46399600  1
  F  F15  1  0.22698900  0.13371400  0.65288200  1
  F  F16  1  0.78552300  0.88197400  0.34115500  1
  F  F17  1  0.84453800  0.63000600  0.52741700  1
  F  F18  1  0.41333500  0.39980200  0.20639900  1
  F  F19  1  0.46974400  0.12767800  0.40390800  1
  F  F20  1  0.09687700  0.63417600  0.27503900  1
  F  F21  1  0.06586400  0.88318200  0.11752400  1
  F  F22  1  0.73334200  0.13451000  0.15934800  1
  F  F23  1  0.73850800  0.34707200  0.07209800  1
  F  F24  1  0.38039400  0.69620700  0.03188900  1
