# generated using pymatgen
data_NaHoO2
_symmetry_space_group_name_H-M   'P 1'
_cell_length_a   8.19982404
_cell_length_b   8.19982404
_cell_length_c   5.97676499
_cell_angle_alpha   59.89017273
_cell_angle_beta   120.10982727
_cell_angle_gamma   73.89310024
_symmetry_Int_Tables_number   1
_chemical_formula_structural   NaHoO2
_chemical_formula_sum   'Na4 Ho4 O8'
_cell_volume   212.67165244
_cell_formula_units_Z   4
loop_
 _symmetry_equiv_pos_site_id
 _symmetry_equiv_pos_as_xyz
  1  'x, y, z'
loop_
 _atom_site_type_symbol
 _atom_site_label
 _atom_site_symmetry_multiplicity
 _atom_site_fract_x
 _atom_site_fract_y
 _atom_site_fract_z
 _atom_site_occupancy
  Na  Na0  1  0.69422543  0.69422543  0.75000000  1
  Na  Na1  1  0.93017830  0.93017830  0.75000000  1
  Na  Na2  1  0.06982170  0.06982170  0.25000000  1
  Na  Na3  1  0.30577457  0.30577457  0.25000000  1
  Ho  Ho4  1  0.18271755  0.18271755  0.75000000  1
  Ho  Ho5  1  0.44313885  0.44313885  0.75000000  1
  Ho  Ho6  1  0.81728245  0.81728245  0.25000000  1
  Ho  Ho7  1  0.55686115  0.55686115  0.25000000  1
  O  O8  1  0.20728046  0.66882122  0.74915510  1
  O  O9  1  0.43862259  0.93468749  0.79468905  1
  O  O10  1  0.33117878  0.79271954  0.24915510  1
  O  O11  1  0.06531251  0.56137741  0.29468905  1
  O  O12  1  0.93468749  0.43862259  0.70531095  1
  O  O13  1  0.66882122  0.20728046  0.75084490  1
  O  O14  1  0.56137741  0.06531251  0.20531095  1
  O  O15  1  0.79271954  0.33117878  0.25084490  1
