# generated using pymatgen
data_BaSr2I6
_symmetry_space_group_name_H-M   'P 1'
_cell_length_a   7.58702811
_cell_length_b   8.49804339
_cell_length_c   28.13823187
_cell_angle_alpha   90.00000000
_cell_angle_beta   90.00000000
_cell_angle_gamma   90.00000000
_symmetry_Int_Tables_number   1
_chemical_formula_structural   BaSr2I6
_chemical_formula_sum   'Ba4 Sr8 I24'
_cell_volume   1814.20951941
_cell_formula_units_Z   4
loop_
 _symmetry_equiv_pos_site_id
 _symmetry_equiv_pos_as_xyz
  1  'x, y, z'
loop_
 _atom_site_type_symbol
 _atom_site_label
 _atom_site_symmetry_multiplicity
 _atom_site_fract_x
 _atom_site_fract_y
 _atom_site_fract_z
 _atom_site_occupancy
  Ba  Ba0  1  0.00000000  0.25000000  0.38138885  1
  Ba  Ba1  1  0.00000000  0.75000000  0.61861115  1
  Ba  Ba2  1  0.50000000  0.25000000  0.88138885  1
  Ba  Ba3  1  0.50000000  0.75000000  0.11861115  1
  Sr  Sr4  1  0.00000000  0.25000000  0.04804850  1
  Sr  Sr5  1  0.00000000  0.75000000  0.28491402  1
  Sr  Sr6  1  0.00000000  0.25000000  0.71508598  1
  Sr  Sr7  1  0.00000000  0.75000000  0.95195150  1
  Sr  Sr8  1  0.50000000  0.25000000  0.21508598  1
  Sr  Sr9  1  0.50000000  0.25000000  0.54804850  1
  Sr  Sr10  1  0.50000000  0.75000000  0.78491402  1
  Sr  Sr11  1  0.50000000  0.75000000  0.45195150  1
  I  I12  1  0.23753466  0.57061664  0.03434537  1
  I  I13  1  0.23753466  0.07061664  0.96565463  1
  I  I14  1  0.24957582  0.56610758  0.20629306  1
  I  I15  1  0.24957582  0.06610758  0.79370694  1
  I  I16  1  0.24308888  0.59100060  0.37049950  1
  I  I17  1  0.24308888  0.09100060  0.62950050  1
  I  I18  1  0.25691112  0.59100060  0.87049950  1
  I  I19  1  0.25691112  0.09100060  0.12950050  1
  I  I20  1  0.25042418  0.06610758  0.29370694  1
  I  I21  1  0.25042418  0.56610758  0.70629306  1
  I  I22  1  0.26246534  0.07061664  0.46565463  1
  I  I23  1  0.26246534  0.57061664  0.53434537  1
  I  I24  1  0.73753466  0.42938336  0.46565463  1
  I  I25  1  0.73753466  0.92938336  0.53434537  1
  I  I26  1  0.74957582  0.43389242  0.29370694  1
  I  I27  1  0.74957582  0.93389242  0.70629306  1
  I  I28  1  0.74308888  0.40899940  0.12950050  1
  I  I29  1  0.74308888  0.90899940  0.87049950  1
  I  I30  1  0.75691112  0.90899940  0.37049950  1
  I  I31  1  0.75691112  0.40899940  0.62950050  1
  I  I32  1  0.75042418  0.43389242  0.79370694  1
  I  I33  1  0.75042418  0.93389242  0.20629306  1
  I  I34  1  0.76246534  0.92938336  0.03434537  1
  I  I35  1  0.76246534  0.42938336  0.96565463  1
