# generated using pymatgen
data_BaLu2O4
_symmetry_space_group_name_H-M   'P 1'
_cell_length_a   3.36350545
_cell_length_b   10.27643779
_cell_length_c   11.86220066
_cell_angle_alpha   90.00000000
_cell_angle_beta   90.00000000
_cell_angle_gamma   90.00000000
_symmetry_Int_Tables_number   1
_chemical_formula_structural   BaLu2O4
_chemical_formula_sum   'Ba4 Lu8 O16'
_cell_volume   410.01524002
_cell_formula_units_Z   4
loop_
 _symmetry_equiv_pos_site_id
 _symmetry_equiv_pos_as_xyz
  1  'x, y, z'
loop_
 _atom_site_type_symbol
 _atom_site_label
 _atom_site_symmetry_multiplicity
 _atom_site_fract_x
 _atom_site_fract_y
 _atom_site_fract_z
 _atom_site_occupancy
  Ba  Ba0  1  0.75000000  0.24675224  0.34975670  1
  Ba  Ba1  1  0.25000000  0.25324776  0.84975670  1
  Ba  Ba2  1  0.75000000  0.74675224  0.15024330  1
  Ba  Ba3  1  0.25000000  0.75324776  0.65024330  1
  Lu  Lu4  1  0.75000000  0.07742077  0.60751539  1
  Lu  Lu5  1  0.75000000  0.07215724  0.10997313  1
  Lu  Lu6  1  0.25000000  0.42784276  0.60997313  1
  Lu  Lu7  1  0.25000000  0.42257923  0.10751539  1
  Lu  Lu8  1  0.75000000  0.57742077  0.89248461  1
  Lu  Lu9  1  0.75000000  0.57215724  0.39002687  1
  Lu  Lu10  1  0.25000000  0.92784276  0.89002687  1
  Lu  Lu11  1  0.25000000  0.92257923  0.39248461  1
  O  O12  1  0.25000000  0.01885101  0.71730853  1
  O  O13  1  0.75000000  0.06767201  0.92663337  1
  O  O14  1  0.25000000  0.11156089  0.48344943  1
  O  O15  1  0.25000000  0.20948891  0.15164887  1
  O  O16  1  0.75000000  0.29051109  0.65164887  1
  O  O17  1  0.75000000  0.38843911  0.98344943  1
  O  O18  1  0.25000000  0.43232799  0.42663337  1
  O  O19  1  0.75000000  0.48114899  0.21730853  1
  O  O20  1  0.25000000  0.51885101  0.78269147  1
  O  O21  1  0.75000000  0.56767201  0.57336663  1
  O  O22  1  0.25000000  0.61156089  0.01655057  1
  O  O23  1  0.25000000  0.70948891  0.34835113  1
  O  O24  1  0.75000000  0.79051109  0.84835113  1
  O  O25  1  0.75000000  0.88843911  0.51655057  1
  O  O26  1  0.25000000  0.93232799  0.07336663  1
  O  O27  1  0.75000000  0.98114899  0.28269147  1
