# generated using pymatgen
data_Mn(AsO2)2
_symmetry_space_group_name_H-M   'P 1'
_cell_length_a   5.73552186
_cell_length_b   8.59092742
_cell_length_c   8.59127278
_cell_angle_alpha   89.97686401
_cell_angle_beta   90.00097934
_cell_angle_gamma   89.99868164
_symmetry_Int_Tables_number   1
_chemical_formula_structural   Mn(AsO2)2
_chemical_formula_sum   'Mn4 As8 O16'
_cell_volume   423.32163199
_cell_formula_units_Z   4
loop_
 _symmetry_equiv_pos_site_id
 _symmetry_equiv_pos_as_xyz
  1  'x, y, z'
loop_
 _atom_site_type_symbol
 _atom_site_label
 _atom_site_symmetry_multiplicity
 _atom_site_fract_x
 _atom_site_fract_y
 _atom_site_fract_z
 _atom_site_occupancy
  Mn  Mn0  1  0.75000067  0.99999543  0.49999546  1
  Mn  Mn1  1  0.74999592  0.49999996  0.00000149  1
  Mn  Mn2  1  0.24999936  0.00000102  0.50000128  1
  Mn  Mn3  1  0.25000094  0.49999539  -0.00000352  1
  As  As4  1  0.50003010  0.17459438  0.80966166  1
  As  As5  1  0.00000547  0.19021884  0.17474486  1
  As  As6  1  0.00001438  0.30966975  0.67461739  1
  As  As7  1  0.50000477  0.32525632  0.30978476  1
  As  As8  1  0.49999074  0.67474165  0.69021850  1
  As  As9  1  0.00000199  0.69032767  0.32537584  1
  As  As10  1  0.99998572  0.80978410  0.82524502  1
  As  As11  1  0.49997065  0.82540194  0.19031573  1
  O  O12  1  0.00000247  0.11027807  0.64131150  1
  O  O13  1  0.50000908  0.14131917  0.61027476  1
  O  O14  1  0.50000496  0.35860761  0.11037141  1
  O  O15  1  -0.00000163  0.38964198  0.14138924  1
  O  O16  1  -0.00000985  0.61035006  0.85861040  1
  O  O17  1  0.49999861  0.64139852  0.88963772  1
  O  O18  1  0.49998212  0.85868952  0.38970853  1
  O  O19  1  0.00000719  0.88972130  0.35868117  1
  O  O20  1  0.25000562  0.18499760  0.31500202  1
  O  O21  1  0.75000977  0.18498698  0.31501127  1
  O  O22  1  0.25003074  0.31484320  0.81486054  1
  O  O23  1  0.75000951  0.31484266  0.81485414  1
  O  O24  1  0.24999223  0.68514292  0.18512789  1
  O  O25  1  0.74998979  0.68515996  0.18513979  1
  O  O26  1  0.24998279  0.81500346  0.68499461  1
  O  O27  1  0.74998590  0.81500454  0.68497654  1
