# generated using pymatgen
data_Ba7Cu3H17
_symmetry_space_group_name_H-M   'P 1'
_cell_length_a   11.81455285
_cell_length_b   11.81459862
_cell_length_c   7.50843461
_cell_angle_alpha   89.99946355
_cell_angle_beta   89.99944538
_cell_angle_gamma   119.99604158
_symmetry_Int_Tables_number   1
_chemical_formula_structural   Ba7Cu3H17
_chemical_formula_sum   'Ba14 Cu6 H34'
_cell_volume   907.68177873
_cell_formula_units_Z   2
loop_
 _symmetry_equiv_pos_site_id
 _symmetry_equiv_pos_as_xyz
  1  'x, y, z'
loop_
 _atom_site_type_symbol
 _atom_site_label
 _atom_site_symmetry_multiplicity
 _atom_site_fract_x
 _atom_site_fract_y
 _atom_site_fract_z
 _atom_site_occupancy
  Ba  Ba0  1  0.87823493  0.14946194  0.67362031  1
  Ba  Ba1  1  0.85053577  0.72877154  0.67361328  1
  Ba  Ba2  1  0.27122888  0.12176625  0.67361152  1
  Ba  Ba3  1  0.14946028  0.87823134  0.17361846  1
  Ba  Ba4  1  0.72877047  0.85053496  0.17361431  1
  Ba  Ba5  1  0.12176470  0.27122710  0.17361326  1
  Ba  Ba6  1  0.45533187  0.55933145  0.53100724  1
  Ba  Ba7  1  0.44066836  0.89600234  0.53100138  1
  Ba  Ba8  1  0.10399996  0.54466885  0.53101863  1
  Ba  Ba9  1  0.55933209  0.45533280  0.03100533  1
  Ba  Ba10  1  0.89600314  0.44066736  0.03100349  1
  Ba  Ba11  1  0.54466864  0.10399910  0.03101735  1
  Ba  Ba12  1  0.66666835  0.33333342  0.51193383  1
  Ba  Ba13  1  0.33333234  0.66667055  0.01193359  1
  Cu  Cu14  1  0.65852946  0.84148751  0.76097007  1
  Cu  Cu15  1  0.15851547  0.81705082  0.76097098  1
  Cu  Cu16  1  0.18295405  0.34146198  0.76096879  1
  Cu  Cu17  1  0.84148791  0.65852880  0.26096989  1
  Cu  Cu18  1  0.81704992  0.15851471  0.26096904  1
  Cu  Cu19  1  0.34146137  0.18295178  0.26096982  1
  H  H20  1  0.59331659  0.92132866  0.84860413  1
  H  H21  1  0.07867360  0.67200823  0.84859592  1
  H  H22  1  0.32800353  0.40666455  0.84859753  1
  H  H23  1  0.92133046  0.59331952  0.34860193  1
  H  H24  1  0.67200570  0.07866894  0.34859774  1
  H  H25  1  0.40666846  0.32800213  0.34860349  1
  H  H26  1  0.65019477  0.82967144  0.54425877  1
  H  H27  1  0.17031693  0.82052399  0.54425357  1
  H  H28  1  0.17947845  0.34979611  0.54425942  1
  H  H29  1  0.82966925  0.65019433  0.04425919  1
  H  H30  1  0.82052436  0.17031759  0.04425601  1
  H  H31  1  0.34979488  0.17947765  0.04425580  1
  H  H32  1  0.59962141  0.69656238  0.84840661  1
  H  H33  1  0.30344192  0.90306739  0.84841202  1
  H  H34  1  0.09693580  0.40037345  0.84841086  1
  H  H35  1  0.69656331  0.59962216  0.34840890  1
  H  H36  1  0.90306587  0.30344135  0.34841066  1
  H  H37  1  0.40037119  0.09693546  0.34840995  1
  H  H38  1  0.81307921  0.91503689  0.82478317  1
  H  H39  1  0.08495314  0.89804655  0.82479179  1
  H  H40  1  0.10195443  0.18691154  0.82479470  1
  H  H41  1  0.91503524  0.81307853  0.32478304  1
  H  H42  1  0.89804859  0.08495314  0.32479037  1
  H  H43  1  0.18691228  0.10195428  0.32479687  1
  H  H44  1  0.87665501  0.37419973  0.68910349  1
  H  H45  1  0.62582884  0.50247159  0.68912018  1
  H  H46  1  0.49754254  0.12335474  0.68911559  1
  H  H47  1  0.37419942  0.87665554  0.18910370  1
  H  H48  1  0.50246770  0.62582545  0.18911822  1
  H  H49  1  0.12335360  0.49753977  0.18911682  1
  H  H50  1  0.66666955  0.33333324  0.17904510  1
  H  H51  1  0.33333154  0.66666782  0.67904650  1
  H  H52  1  0.66667138  0.33332580  0.86834544  1
  H  H53  1  0.33332510  0.66667146  0.36834596  1
