# generated using pymatgen
data_Hf2N2O
_symmetry_space_group_name_H-M   'P 1'
_cell_length_a   8.67228191
_cell_length_b   8.66860625
_cell_length_c   8.68260781
_cell_angle_alpha   109.55944817
_cell_angle_beta   109.51311539
_cell_angle_gamma   109.36173390
_symmetry_Int_Tables_number   1
_chemical_formula_structural   Hf2N2O
_chemical_formula_sum   'Hf16 N16 O8'
_cell_volume   502.34171729
_cell_formula_units_Z   8
loop_
 _symmetry_equiv_pos_site_id
 _symmetry_equiv_pos_as_xyz
  1  'x, y, z'
loop_
 _atom_site_type_symbol
 _atom_site_label
 _atom_site_symmetry_multiplicity
 _atom_site_fract_x
 _atom_site_fract_y
 _atom_site_fract_z
 _atom_site_occupancy
  Hf  Hf0  1  0.96114032  0.24322112  0.21920746  1
  Hf  Hf1  1  0.50640012  0.00299175  0.99508105  1
  Hf  Hf2  1  0.70604056  0.45544923  0.24369435  1
  Hf  Hf3  1  0.78154576  0.03078198  0.75152769  1
  Hf  Hf4  1  0.75522412  0.78717000  0.03292636  1
  Hf  Hf5  1  0.75608420  0.28539407  0.53905806  1
  Hf  Hf6  1  0.99801030  0.50417245  0.98889508  1
  Hf  Hf7  1  0.01630770  0.00878563  0.51034502  1
  Hf  Hf8  1  0.49104985  0.50544906  0.50305199  1
  Hf  Hf9  1  0.46864704  0.25251892  0.72034012  1
  Hf  Hf10  1  0.52482263  0.74088342  0.28641471  1
  Hf  Hf11  1  0.25127308  0.21789300  0.96121739  1
  Hf  Hf12  1  0.25373503  0.71857446  0.46760197  1
  Hf  Hf13  1  0.21053045  0.96031320  0.25151224  1
  Hf  Hf14  1  0.28424476  0.53472963  0.74404436  1
  Hf  Hf15  1  0.03834007  0.75344928  0.78577376  1
  N  N16  1  0.73908837  0.22955219  0.27521465  1
  N  N17  1  0.45566595  0.46524091  0.22868234  1
  N  N18  1  0.72712007  0.25688996  0.76889870  1
  N  N19  1  0.01002069  0.04494089  0.27536347  1
  N  N20  1  0.27139380  0.73375893  0.22262659  1
  N  N21  1  0.22584685  0.45584705  0.46338188  1
  N  N22  1  0.98651736  0.95333744  0.72783744  1
  N  N23  1  0.51013985  0.23712351  0.96686349  1
  N  N24  1  0.54572493  0.53387984  0.77168565  1
  N  N25  1  0.95755286  0.72931511  0.98994368  1
  N  N26  1  0.22389669  0.27405329  0.74135558  1
  N  N27  1  0.53542541  0.77388961  0.54500250  1
  N  N28  1  0.03079521  0.48546745  0.75709104  1
  N  N29  1  0.72670409  0.98702366  0.95360598  1
  N  N30  1  0.26413858  0.77731451  0.73240621  1
  N  N31  1  0.24027289  0.96875875  0.51061688  1
  O  O32  1  0.75822360  0.03006973  0.48095595  1
  O  O33  1  0.27557403  0.01261739  0.05006385  1
  O  O34  1  0.96054510  0.51315454  0.23534999  1
  O  O35  1  0.77132840  0.72463773  0.26045980  1
  O  O36  1  0.46681799  0.22736349  0.44787705  1
  O  O37  1  0.04768724  0.27629331  0.01864856  1
  O  O38  1  0.77132241  0.54250608  0.53552920  1
  O  O39  1  0.49480564  0.76519044  0.03984792  1
