# generated using pymatgen
data_Cs4GeO4
_symmetry_space_group_name_H-M   'P 1'
_cell_length_a   7.08720599
_cell_length_b   11.33550850
_cell_length_c   11.68837934
_cell_angle_alpha   68.03714463
_cell_angle_beta   90.00000000
_cell_angle_gamma   90.00000000
_symmetry_Int_Tables_number   1
_chemical_formula_structural   Cs4GeO4
_chemical_formula_sum   'Cs16 Ge4 O16'
_cell_volume   870.86305994
_cell_formula_units_Z   4
loop_
 _symmetry_equiv_pos_site_id
 _symmetry_equiv_pos_as_xyz
  1  'x, y, z'
loop_
 _atom_site_type_symbol
 _atom_site_label
 _atom_site_symmetry_multiplicity
 _atom_site_fract_x
 _atom_site_fract_y
 _atom_site_fract_z
 _atom_site_occupancy
  Cs  Cs0  1  0.58507410  0.28909817  0.07057049  1
  Cs  Cs1  1  0.12537988  0.42417375  0.14975850  1
  Cs  Cs2  1  0.91492590  0.78909817  0.07057049  1
  Cs  Cs3  1  0.32901625  0.10460436  0.37480402  1
  Cs  Cs4  1  0.37462012  0.92417375  0.14975850  1
  Cs  Cs5  1  0.82808503  0.21660377  0.41276952  1
  Cs  Cs6  1  0.17098375  0.60460436  0.37480402  1
  Cs  Cs7  1  0.32808503  0.28339623  0.58723048  1
  Cs  Cs8  1  0.67191497  0.71660377  0.41276952  1
  Cs  Cs9  1  0.82901625  0.39539564  0.62519598  1
  Cs  Cs10  1  0.17191497  0.78339623  0.58723048  1
  Cs  Cs11  1  0.62537988  0.07582625  0.85024150  1
  Cs  Cs12  1  0.67098375  0.89539564  0.62519598  1
  Cs  Cs13  1  0.08507410  0.21090183  0.92942951  1
  Cs  Cs14  1  0.87462012  0.57582625  0.85024150  1
  Cs  Cs15  1  0.41492590  0.71090183  0.92942951  1
  Ge  Ge16  1  0.87709686  0.01261404  0.23811802  1
  Ge  Ge17  1  0.62290314  0.51261404  0.23811802  1
  Ge  Ge18  1  0.37709686  0.48738596  0.76188198  1
  Ge  Ge19  1  0.12290314  0.98738596  0.76188198  1
  O  O20  1  0.77759083  0.01929131  0.09592201  1
  O  O21  1  0.01116042  0.15453460  0.20955200  1
  O  O22  1  0.72240917  0.51929131  0.09592201  1
  O  O23  1  0.47788568  0.37428742  0.30645261  1
  O  O24  1  0.48883958  0.65453460  0.20955200  1
  O  O25  1  0.81394259  0.50530590  0.34106977  1
  O  O26  1  0.02211432  0.87428742  0.30645261  1
  O  O27  1  0.31394259  -0.00530590  0.65893023  1
  O  O28  1  0.68605741  0.00530590  0.34106977  1
  O  O29  1  0.97788568  0.12571258  0.69354739  1
  O  O30  1  0.18605741  0.49469410  0.65893023  1
  O  O31  1  0.51116042  0.34546540  0.79044800  1
  O  O32  1  0.52211432  0.62571258  0.69354739  1
  O  O33  1  0.27759083  0.48070869  0.90407799  1
  O  O34  1  0.98883958  0.84546540  0.79044800  1
  O  O35  1  0.22240917  0.98070869  0.90407799  1
