# generated using pymatgen
data_Dy3Sb5O12
_symmetry_space_group_name_H-M   'P 1'
_cell_length_a   9.31488886
_cell_length_b   9.31481968
_cell_length_c   9.31477680
_cell_angle_alpha   109.47057803
_cell_angle_beta   109.47074125
_cell_angle_gamma   109.47084780
_symmetry_Int_Tables_number   1
_chemical_formula_structural   Dy3Sb5O12
_chemical_formula_sum   'Dy6 Sb10 O24'
_cell_volume   622.17234521
_cell_formula_units_Z   2
loop_
 _symmetry_equiv_pos_site_id
 _symmetry_equiv_pos_as_xyz
  1  'x, y, z'
loop_
 _atom_site_type_symbol
 _atom_site_label
 _atom_site_symmetry_multiplicity
 _atom_site_fract_x
 _atom_site_fract_y
 _atom_site_fract_z
 _atom_site_occupancy
  Dy  Dy0  1  0.75000698  0.25000476  0.50000311  1
  Dy  Dy1  1  0.74999740  0.50001070  0.24998895  1
  Dy  Dy2  1  0.50000912  0.25002182  0.75002517  1
  Dy  Dy3  1  0.50000076  0.74998338  0.24998163  1
  Dy  Dy4  1  0.24999434  0.74999370  0.50000615  1
  Dy  Dy5  1  0.25000951  0.50000275  0.75001454  1
  Sb  Sb6  1  0.51591163  0.00001215  -0.00000211  1
  Sb  Sb7  1  0.28137497  -0.00002605  0.28138568  1
  Sb  Sb8  1  0.28139148  0.28138341  0.00000160  1
  Sb  Sb9  1  0.71862177  -0.00000243  0.71861166  1
  Sb  Sb10  1  0.71864419  0.71864499  -0.00001548  1
  Sb  Sb11  1  0.00002513  0.51592892  0.00000715  1
  Sb  Sb12  1  -0.00003181  -0.00003247  0.51588861  1
  Sb  Sb13  1  0.48409059  0.48407826  0.48410109  1
  Sb  Sb14  1  -0.00002673  0.28137220  0.28137378  1
  Sb  Sb15  1  -0.00002741  0.71863005  0.71862482  1
  O  O16  1  0.47781731  0.99998878  0.20009047  1
  O  O17  1  0.47784114  0.20012704  -0.00000388  1
  O  O18  1  0.70429485  0.50325554  -0.00000793  1
  O  O19  1  0.70431365  -0.00001036  0.50323679  1
  O  O20  1  0.79892626  0.29569684  0.29569198  1
  O  O21  1  0.49675977  0.49675157  0.20103375  1
  O  O22  1  0.49676699  0.20108440  0.49677642  1
  O  O23  1  0.50324911  0.70427651  -0.00001325  1
  O  O24  1  0.50322769  0.00000110  0.70431542  1
  O  O25  1  0.72226701  0.52216764  0.52217378  1
  O  O26  1  0.79990332  0.27773101  0.79990529  1
  O  O27  1  0.79989492  0.79988359  0.27771874  1
  O  O28  1  0.20012293  0.47783286  -0.00000150  1
  O  O29  1  0.20009685  -0.00001043  0.47782657  1
  O  O30  1  0.52216902  0.72225763  0.52216955  1
  O  O31  1  0.52215772  0.52215272  0.72226992  1
  O  O32  1  0.99998818  0.47782972  0.20009939  1
  O  O33  1  -0.00000152  0.20010564  0.47782971  1
  O  O34  1  0.29568314  0.79891598  0.29568227  1
  O  O35  1  0.29572556  0.29572467  0.79896596  1
  O  O36  1  0.20107952  0.49676334  0.49677578  1
  O  O37  1  -0.00001010  0.70430811  0.50324572  1
  O  O38  1  0.00000590  0.50325449  0.70431852  1
  O  O39  1  0.27772991  0.79990447  0.79990417  1
