# generated using pymatgen
data_Nd2Zr3(MoO4)9
_symmetry_space_group_name_H-M   'P 1'
_cell_length_a   20.41980133
_cell_length_b   20.41980133
_cell_length_c   20.41980165
_cell_angle_alpha   27.91417293
_cell_angle_beta   27.91417293
_cell_angle_gamma   27.91417052
_symmetry_Int_Tables_number   1
_chemical_formula_structural   Nd2Zr3(MoO4)9
_chemical_formula_sum   'Nd4 Zr6 Mo18 O72'
_cell_volume   1647.97095104
_cell_formula_units_Z   2
loop_
 _symmetry_equiv_pos_site_id
 _symmetry_equiv_pos_as_xyz
  1  'x, y, z'
loop_
 _atom_site_type_symbol
 _atom_site_label
 _atom_site_symmetry_multiplicity
 _atom_site_fract_x
 _atom_site_fract_y
 _atom_site_fract_z
 _atom_site_occupancy
  Nd  Nd0  1  0.30402450  0.30402450  0.30402450  1
  Nd  Nd1  1  0.19597550  0.19597550  0.19597550  1
  Nd  Nd2  1  0.69597550  0.69597550  0.69597550  1
  Nd  Nd3  1  0.80402450  0.80402450  0.80402450  1
  Zr  Zr4  1  0.40455548  0.40455548  0.40455548  1
  Zr  Zr5  1  0.09544452  0.09544452  0.09544452  1
  Zr  Zr6  1  0.59544452  0.59544452  0.59544452  1
  Zr  Zr7  1  0.00000000  -0.00000000  -0.00000000  1
  Zr  Zr8  1  0.50000000  0.50000000  0.50000000  1
  Zr  Zr9  1  0.90455548  0.90455548  0.90455548  1
  Mo  Mo10  1  0.62041771  0.80052190  0.15331617  1
  Mo  Mo11  1  0.65331617  0.30052190  0.12041771  1
  Mo  Mo12  1  0.87958229  0.34668383  0.69947810  1
  Mo  Mo13  1  0.25000000  0.97118762  0.52881238  1
  Mo  Mo14  1  0.97118762  0.52881238  0.25000000  1
  Mo  Mo15  1  0.19947810  0.84668383  0.37958229  1
  Mo  Mo16  1  0.02881238  0.47118762  0.75000000  1
  Mo  Mo17  1  0.12041771  0.65331617  0.30052190  1
  Mo  Mo18  1  0.84668383  0.37958229  0.19947810  1
  Mo  Mo19  1  0.15331617  0.62041771  0.80052190  1
  Mo  Mo20  1  0.52881238  0.25000000  0.97118762  1
  Mo  Mo21  1  0.47118762  0.75000000  0.02881238  1
  Mo  Mo22  1  0.75000000  0.02881238  0.47118762  1
  Mo  Mo23  1  0.30052190  0.12041771  0.65331617  1
  Mo  Mo24  1  0.34668383  0.69947810  0.87958229  1
  Mo  Mo25  1  0.37958229  0.19947810  0.84668383  1
  Mo  Mo26  1  0.80052190  0.15331617  0.62041771  1
  Mo  Mo27  1  0.69947810  0.87958229  0.34668383  1
  O  O28  1  0.84256293  0.00471203  0.65776406  1
  O  O29  1  0.31555644  0.25771646  0.57440283  1
  O  O30  1  0.15776406  0.50471203  0.34256293  1
  O  O31  1  0.42559717  0.68444356  0.74228354  1
  O  O32  1  0.07029414  0.27659098  0.56387086  1
  O  O33  1  0.81479635  0.10378736  0.13923257  1
  O  O34  1  0.56495062  0.69709963  0.91790844  1
  O  O35  1  0.25771646  0.57440283  0.31555644  1
  O  O36  1  0.43504938  0.30290037  0.08209156  1
  O  O37  1  0.10378736  0.13923257  0.81479635  1
  O  O38  1  0.03829638  0.27755510  0.91849445  1
  O  O39  1  0.75771646  0.81555644  0.07440283  1
  O  O40  1  0.07440283  0.75771646  0.81555644  1
  O  O41  1  0.41790844  0.19709963  0.06495062  1
  O  O42  1  0.72244490  0.08150555  0.96170362  1
  O  O43  1  0.24228354  0.18444356  0.92559717  1
  O  O44  1  0.91849445  0.03829638  0.27755510  1
  O  O45  1  0.58209156  0.80290037  0.93504938  1
  O  O46  1  0.63923257  0.60378736  0.31479635  1
  O  O47  1  0.13923257  0.81479635  0.10378736  1
  O  O48  1  0.74228354  0.42559717  0.68444356  1
  O  O49  1  0.22244490  0.46170362  0.58150555  1
  O  O50  1  0.81555644  0.07440283  0.75771646  1
  O  O51  1  0.41849445  0.77755510  0.53829638  1
  O  O52  1  0.60378736  0.31479635  0.63923257  1
  O  O53  1  0.06387086  0.77659098  0.57029414  1
  O  O54  1  0.08150555  0.96170362  0.72244490  1
  O  O55  1  0.30290037  0.08209156  0.43504938  1
  O  O56  1  0.34223594  0.15743707  0.99528797  1
  O  O57  1  0.58150555  0.22244490  0.46170362  1
  O  O58  1  0.89621264  0.86076743  0.18520365  1
  O  O59  1  0.86076743  0.18520365  0.89621264  1
  O  O60  1  0.18520365  0.89621264  0.86076743  1
  O  O61  1  0.18444356  0.92559717  0.24228354  1
  O  O62  1  0.27755510  0.91849445  0.03829638  1
  O  O63  1  0.08209156  0.43504938  0.30290037  1
  O  O64  1  0.99528797  0.34223594  0.15743707  1
  O  O65  1  0.46170362  0.58150555  0.22244490  1
  O  O66  1  0.27659098  0.56387086  0.07029414  1
  O  O67  1  0.00471203  0.65776406  0.84256293  1
  O  O68  1  0.93504938  0.58209156  0.80290037  1
  O  O69  1  0.15743707  0.99528797  0.34223594  1
  O  O70  1  0.65776406  0.84256293  0.00471203  1
  O  O71  1  0.91790844  0.56495062  0.69709963  1
  O  O72  1  0.68444356  0.74228354  0.42559717  1
  O  O73  1  0.19709963  0.06495062  0.41790844  1
  O  O74  1  0.68520365  0.36076743  0.39621264  1
  O  O75  1  0.22340902  0.42970586  0.93612914  1
  O  O76  1  0.56387086  0.07029414  0.27659098  1
  O  O77  1  0.06495062  0.41790844  0.19709963  1
  O  O78  1  0.92970586  0.72340902  0.43612914  1
  O  O79  1  0.36076743  0.39621264  0.68520365  1
  O  O80  1  0.57029414  0.06387086  0.77659098  1
  O  O81  1  0.69709963  0.91790844  0.56495062  1
  O  O82  1  0.96170362  0.72244490  0.08150555  1
  O  O83  1  0.31479635  0.63923257  0.60378736  1
  O  O84  1  0.42970586  0.93612914  0.22340902  1
  O  O85  1  0.80290037  0.93504938  0.58209156  1
  O  O86  1  0.53829638  0.41849445  0.77755510  1
  O  O87  1  0.72340902  0.43612914  0.92970586  1
  O  O88  1  0.92559717  0.24228354  0.18444356  1
  O  O89  1  0.34256293  0.15776406  0.50471203  1
  O  O90  1  0.43612914  0.92970586  0.72340902  1
  O  O91  1  0.65743707  0.84223594  0.49528797  1
  O  O92  1  0.77659098  0.57029414  0.06387086  1
  O  O93  1  0.57440283  0.31555644  0.25771646  1
  O  O94  1  0.93612914  0.22340902  0.42970586  1
  O  O95  1  0.84223594  0.49528797  0.65743707  1
  O  O96  1  0.39621264  0.68520365  0.36076743  1
  O  O97  1  0.77755510  0.53829638  0.41849445  1
  O  O98  1  0.50471203  0.34256293  0.15776406  1
  O  O99  1  0.49528797  0.65743707  0.84223594  1
