# generated using pymatgen
data_Ho2TeO6
_symmetry_space_group_name_H-M   'P 1'
_cell_length_a   5.22893164
_cell_length_b   9.02023697
_cell_length_c   9.87756462
_cell_angle_alpha   90.00000000
_cell_angle_beta   90.00000000
_cell_angle_gamma   90.00000000
_symmetry_Int_Tables_number   1
_chemical_formula_structural   Ho2TeO6
_chemical_formula_sum   'Ho8 Te4 O24'
_cell_volume   465.88721300
_cell_formula_units_Z   4
loop_
 _symmetry_equiv_pos_site_id
 _symmetry_equiv_pos_as_xyz
  1  'x, y, z'
loop_
 _atom_site_type_symbol
 _atom_site_label
 _atom_site_symmetry_multiplicity
 _atom_site_fract_x
 _atom_site_fract_y
 _atom_site_fract_z
 _atom_site_occupancy
  Ho  Ho0  1  0.01953735  0.39597080  0.03764936  1
  Ho  Ho1  1  0.03839245  0.28287351  0.63456824  1
  Ho  Ho2  1  0.46160755  0.71712649  0.13456824  1
  Ho  Ho3  1  0.48046265  0.60402920  0.53764936  1
  Ho  Ho4  1  0.51953735  0.10402920  0.96235064  1
  Ho  Ho5  1  0.53839245  0.21712649  0.36543176  1
  Ho  Ho6  1  0.96160755  0.78287351  0.86543176  1
  Ho  Ho7  1  0.98046265  0.89597080  0.46235064  1
  Te  Te8  1  0.03875628  0.00499618  0.14850806  1
  Te  Te9  1  0.46124372  0.99500382  0.64850806  1
  Te  Te10  1  0.53875628  0.49500382  0.85149194  1
  Te  Te11  1  0.96124372  0.50499618  0.35149194  1
  O  O12  1  0.08623218  0.65503368  0.47133503  1
  O  O13  1  0.16852772  0.55124762  0.20017642  1
  O  O14  1  0.18821191  0.85878226  0.26215667  1
  O  O15  1  0.18052644  0.85944815  0.67926251  1
  O  O16  1  0.23236230  0.38532016  0.42988390  1
  O  O17  1  0.25630424  0.08508424  0.50520389  1
  O  O18  1  0.24369576  0.91491576  0.00520389  1
  O  O19  1  0.26763770  0.61467984  0.92988390  1
  O  O20  1  0.31947356  0.14055185  0.17926251  1
  O  O21  1  0.31178809  0.14121774  0.76215667  1
  O  O22  1  0.33147228  0.44875238  0.70017642  1
  O  O23  1  0.41376782  0.34496632  0.97133503  1
  O  O24  1  0.58623218  0.84496632  0.52866497  1
  O  O25  1  0.66852772  0.94875238  0.79982358  1
  O  O26  1  0.68821191  0.64121774  0.73784333  1
  O  O27  1  0.68052644  0.64055185  0.32073749  1
  O  O28  1  0.73236230  0.11467984  0.57011610  1
  O  O29  1  0.75630424  0.41491576  0.49479611  1
  O  O30  1  0.74369576  0.58508424  0.99479611  1
  O  O31  1  0.76763770  0.88532016  0.07011610  1
  O  O32  1  0.81947356  0.35944815  0.82073749  1
  O  O33  1  0.81178809  0.35878226  0.23784333  1
  O  O34  1  0.83147228  0.05124762  0.29982358  1
  O  O35  1  0.91376782  0.15503368  0.02866497  1
