# generated using pymatgen
data_Li5V3P8O29
_symmetry_space_group_name_H-M   'P 1'
_cell_length_a   9.81543188
_cell_length_b   9.78785881
_cell_length_c   14.15109447
_cell_angle_alpha   89.77829021
_cell_angle_beta   89.70002565
_cell_angle_gamma   60.01863491
_symmetry_Int_Tables_number   1
_chemical_formula_structural   Li5V3P8O29
_chemical_formula_sum   'Li10 V6 P16 O58'
_cell_volume   1177.58667966
_cell_formula_units_Z   2
loop_
 _symmetry_equiv_pos_site_id
 _symmetry_equiv_pos_as_xyz
  1  'x, y, z'
loop_
 _atom_site_type_symbol
 _atom_site_label
 _atom_site_symmetry_multiplicity
 _atom_site_fract_x
 _atom_site_fract_y
 _atom_site_fract_z
 _atom_site_occupancy
  Li  Li0  1  0.90094016  0.76196663  0.06527379  1
  Li  Li1  1  0.76574242  0.90246866  0.55547207  1
  Li  Li2  1  0.90263764  0.32807008  0.55446473  1
  Li  Li3  1  0.75995645  0.33525736  0.06191214  1
  Li  Li4  1  0.33739987  0.89883676  0.06337118  1
  Li  Li5  1  0.32984252  0.76693050  0.55715990  1
  Li  Li6  1  0.33750616  0.33936392  0.60350100  1
  Li  Li7  1  0.09471232  0.23474830  0.94333657  1
  Li  Li8  1  0.98233243  0.97526434  0.00087026  1
  Li  Li9  1  0.99019029  0.00460011  0.48733372  1
  V  V10  1  0.56227839  0.43532848  0.25231846  1
  V  V11  1  0.43633340  0.56305924  0.75335326  1
  V  V12  1  0.56717682  0.99909770  0.75326976  1
  V  V13  1  0.43667696  0.99945351  0.24983353  1
  V  V14  1  0.00017757  0.56786595  0.25165084  1
  V  V15  1  0.99880491  0.43547659  0.74783615  1
  P  P16  1  0.91518163  0.77198353  0.84302761  1
  P  P17  1  0.77363437  0.91334300  0.34409025  1
  P  P18  1  0.91037675  0.31210434  0.34079396  1
  P  P19  1  0.66667914  0.66459004  0.12943896  1
  P  P20  1  0.66328792  0.66742572  0.63094828  1
  P  P21  1  0.77323483  0.31348942  0.84550541  1
  P  P22  1  0.69210335  0.22054935  0.66239717  1
  P  P23  1  0.31031050  0.91600627  0.84282192  1
  P  P24  1  0.69431179  0.08467932  0.16179737  1
  P  P25  1  0.31249765  0.77546839  0.34260001  1
  P  P26  1  0.22271994  0.69392578  0.16001669  1
  P  P27  1  0.33041987  0.33510587  0.36804096  1
  P  P28  1  0.33228766  0.33122739  0.86844513  1
  P  P29  1  0.08849120  0.69226568  0.65989089  1
  P  P30  1  0.22456043  0.08808514  0.65907819  1
  P  P31  1  0.08761732  0.22738653  0.15986195  1
  O  O32  1  0.98816306  0.79308408  0.58100349  1
  O  O33  1  0.91470804  0.74425400  0.32852855  1
  O  O34  1  0.80107549  0.99276628  0.08164579  1
  O  O35  1  0.74331929  0.91216582  0.82787094  1
  O  O36  1  0.91571509  0.61628623  0.82846594  1
  O  O37  1  0.81224333  0.67316776  0.16676214  1
  O  O38  1  0.91112537  0.46654051  0.33100516  1
  O  O39  1  0.99921308  0.22941036  0.07182128  1
  O  O40  1  0.92022313  0.33484702  0.83332770  1
  O  O41  1  0.66279601  0.81696933  0.67331046  1
  O  O42  1  0.62075309  0.91093318  0.33081366  1
  O  O43  1  0.81245191  0.51618261  0.66931784  1
  O  O44  1  0.66844786  0.65371948  0.02384110  1
  O  O45  1  0.65857035  0.67393936  0.52595606  1
  O  O46  1  0.67156077  0.51256090  0.17370801  1
  O  O47  1  0.46815267  0.91569941  0.82354999  1
  O  O48  1  0.51206094  0.81175382  0.16619104  1
  O  O49  1  0.73943373  0.34153165  0.32781145  1
  O  O50  1  0.78516071  0.19912560  0.75993383  1
  O  O51  1  0.79581357  0.21035148  0.58214164  1
  O  O52  1  0.78580173  0.23133721  0.93696865  1
  O  O53  1  0.62159085  0.47204028  0.83047057  1
  O  O54  1  0.51535925  0.66614538  0.67335806  1
  O  O55  1  0.65673520  0.25919004  0.15958844  1
  O  O56  1  0.46983852  0.61768004  0.32678767  1
  O  O57  1  0.34497362  0.91310318  0.32906497  1
  O  O58  1  0.78837363  0.01590990  0.25935523  1
  O  O59  1  0.79141210  0.98012382  0.43523651  1
  O  O60  1  0.21927920  0.99268230  0.57925991  1
  O  O61  1  0.66096163  0.07811971  0.66092636  1
  O  O62  1  0.52856481  0.37229681  0.66864501  1
  O  O63  1  0.33890232  0.74951026  0.83671381  1
  O  O64  1  0.47902920  0.33880650  0.32172876  1
  O  O65  1  0.38242499  0.53890556  0.17162898  1
  O  O66  1  0.21291833  0.79747521  0.07903212  1
  O  O67  1  0.23442850  0.78493520  0.43491169  1
  O  O68  1  0.19868107  0.78961173  0.25796852  1
  O  O69  1  0.25739249  0.66411222  0.65747747  1
  O  O70  1  0.48030836  0.18310396  0.81982283  1
  O  O71  1  0.54119184  0.07769035  0.16985041  1
  O  O72  1  0.33593703  0.47561455  0.82187398  1
  O  O73  1  0.33935491  0.32288700  0.97261345  1
  O  O74  1  0.34300385  0.33320653  0.47332148  1
  O  O75  1  0.18789063  0.48420450  0.32794688  1
  O  O76  1  0.37778107  0.09725501  0.66968053  1
  O  O77  1  0.33440774  0.18892784  0.32486858  1
  O  O78  1  0.08486799  0.66053969  0.15782867  1
  O  O79  1  0.01541888  0.78675616  0.75865471  1
  O  O80  1  0.97582271  0.79047788  0.93553865  1
  O  O81  1  0.10118136  0.52689849  0.67034098  1
  O  O82  1  0.18650791  0.32608319  0.82837387  1
  O  O83  1  0.08678482  0.38343180  0.17414644  1
  O  O84  1  0.25641279  0.08501518  0.15798906  1
  O  O85  1  0.23367501  0.00076050  0.93330931  1
  O  O86  1  0.19888324  0.01734973  0.75690102  1
  O  O87  1  0.08419150  0.26109338  0.65611853  1
  O  O88  1  0.97608341  0.22302459  0.43107852  1
  O  O89  1  0.00451037  0.20096656  0.25154115  1
