# generated using pymatgen
data_Ce4ThO10
_symmetry_space_group_name_H-M   'P 1'
_cell_length_a   15.94298946
_cell_length_b   15.94298946
_cell_length_c   6.69870215
_cell_angle_alpha   86.00649005
_cell_angle_beta   86.00649005
_cell_angle_gamma   13.94452957
_symmetry_Int_Tables_number   1
_chemical_formula_structural   Ce4ThO10
_chemical_formula_sum   'Ce8 Th2 O20'
_cell_volume   409.30203804
_cell_formula_units_Z   2
loop_
 _symmetry_equiv_pos_site_id
 _symmetry_equiv_pos_as_xyz
  1  'x, y, z'
loop_
 _atom_site_type_symbol
 _atom_site_label
 _atom_site_symmetry_multiplicity
 _atom_site_fract_x
 _atom_site_fract_y
 _atom_site_fract_z
 _atom_site_occupancy
  Ce  Ce0  1  0.00000000  0.00000000  0.50000000  1
  Ce  Ce1  1  0.29945989  0.29945989  0.39940506  1
  Ce  Ce2  1  0.50000000  0.50000000  -0.00000000  1
  Ce  Ce3  1  0.70054011  0.70054011  0.60059494  1
  Ce  Ce4  1  0.89986369  0.89986369  0.19988721  1
  Ce  Ce5  1  0.79919799  0.79919799  0.90110164  1
  Ce  Ce6  1  0.20080201  0.20080201  0.09889836  1
  Ce  Ce7  1  0.10013631  0.10013631  0.80011279  1
  Th  Th8  1  0.39966747  0.39966747  0.70025506  1
  Th  Th9  1  0.60033253  0.60033253  0.29974494  1
  O  O10  1  0.52421391  0.52421391  0.32453271  1
  O  O11  1  0.07462381  0.07462381  0.47896811  1
  O  O12  1  0.92537619  0.92537619  0.52103189  1
  O  O13  1  0.02493289  0.02493289  0.82587936  1
  O  O14  1  0.57468480  0.57468480  0.97119849  1
  O  O15  1  0.47578609  0.47578609  0.67546729  1
  O  O16  1  0.37420255  0.37420255  0.37124129  1
  O  O17  1  0.77474401  0.77474401  0.57509549  1
  O  O18  1  0.32364435  0.32364435  0.72527467  1
  O  O19  1  0.22525599  0.22525599  0.42490451  1
  O  O20  1  0.87421212  0.87421212  0.87939541  1
  O  O21  1  0.97506711  0.97506711  0.17412064  1
  O  O22  1  0.42531520  0.42531520  0.02880151  1
  O  O23  1  0.27466515  0.27466515  0.07512814  1
  O  O24  1  0.82428669  0.82428669  0.22559805  1
  O  O25  1  0.72533485  0.72533485  0.92487186  1
  O  O26  1  0.17571331  0.17571331  0.77440195  1
  O  O27  1  0.62579745  0.62579745  0.62875871  1
  O  O28  1  0.12578788  0.12578788  0.12060459  1
  O  O29  1  0.67635565  0.67635565  0.27472533  1
