# generated using pymatgen
data_CaZrGeO5
_symmetry_space_group_name_H-M   'P 1'
_cell_length_a   7.54473900
_cell_length_b   5.81924376
_cell_length_c   5.67178421
_cell_angle_alpha   107.20265739
_cell_angle_beta   102.02406181
_cell_angle_gamma   104.12937971
_symmetry_Int_Tables_number   1
_chemical_formula_structural   CaZrGeO5
_chemical_formula_sum   'Ca2 Zr2 Ge2 O10'
_cell_volume   219.85061290
_cell_formula_units_Z   2
loop_
 _symmetry_equiv_pos_site_id
 _symmetry_equiv_pos_as_xyz
  1  'x, y, z'
loop_
 _atom_site_type_symbol
 _atom_site_label
 _atom_site_symmetry_multiplicity
 _atom_site_fract_x
 _atom_site_fract_y
 _atom_site_fract_z
 _atom_site_occupancy
  Ca  Ca0  1  0.15759700  0.77817600  0.82326700  1
  Ca  Ca1  1  0.84240300  0.22182400  0.17673300  1
  Zr  Zr2  1  0.50000000  0.50000000  0.50000000  1
  Zr  Zr3  1  0.50000000  0.00000000  0.50000000  1
  Ge  Ge4  1  0.18370200  0.25052500  0.82451000  1
  Ge  Ge5  1  0.81629800  0.74947500  0.17549000  1
  O  O6  1  0.59814400  0.25029300  0.42417500  1
  O  O7  1  0.40185600  0.74970700  0.57582500  1
  O  O8  1  0.89305100  0.06584800  0.75371100  1
  O  O9  1  0.10694900  0.93415200  0.24628900  1
  O  O10  1  0.22072500  0.40431300  0.12336100  1
  O  O11  1  0.77927500  0.59568700  0.87663900  1
  O  O12  1  0.81495600  0.62197000  0.39330500  1
  O  O13  1  0.18504400  0.37803000  0.60669500  1
  O  O14  1  0.57918200  0.87288100  0.16542800  1
  O  O15  1  0.42081800  0.12711900  0.83457200  1
