# generated using pymatgen
data_Na3FeAsCO7
_symmetry_space_group_name_H-M   'P 1'
_cell_length_a   8.43295647
_cell_length_b   8.43292850
_cell_length_c   9.13702059
_cell_angle_alpha   89.59731623
_cell_angle_beta   89.60233428
_cell_angle_gamma   104.75388521
_symmetry_Int_Tables_number   1
_chemical_formula_structural   Na3FeAsCO7
_chemical_formula_sum   'Na12 Fe4 As4 C4 O28'
_cell_volume   628.30975891
_cell_formula_units_Z   4
loop_
 _symmetry_equiv_pos_site_id
 _symmetry_equiv_pos_as_xyz
  1  'x, y, z'
loop_
 _atom_site_type_symbol
 _atom_site_label
 _atom_site_symmetry_multiplicity
 _atom_site_fract_x
 _atom_site_fract_y
 _atom_site_fract_z
 _atom_site_occupancy
  Na  Na0  1  0.50950214  0.25955474  0.08131874  1
  Na  Na1  1  0.00965884  0.75965117  0.08138551  1
  Na  Na2  1  0.49058184  0.74054712  0.91871867  1
  Na  Na3  1  0.99032015  0.24030896  0.91861423  1
  Na  Na4  1  0.12295047  0.12520221  0.25540462  1
  Na  Na5  1  0.62299226  0.62516989  0.25541714  1
  Na  Na6  1  0.37519290  0.87293850  0.25539416  1
  Na  Na7  1  0.87522664  0.37290301  0.25537804  1
  Na  Na8  1  0.62480891  0.12707598  0.74458307  1
  Na  Na9  1  0.12476572  0.62707448  0.74463753  1
  Na  Na10  1  0.87704542  0.87480164  0.74457293  1
  Na  Na11  1  0.37700430  0.37482588  0.74459659  1
  Fe  Fe12  1  0.26503684  0.51496765  0.34367054  1
  Fe  Fe13  1  0.73496534  0.48502669  0.65630549  1
  Fe  Fe14  1  0.76505528  0.01500062  0.34381284  1
  Fe  Fe15  1  0.23493629  0.98499193  0.65621390  1
  As  As16  1  0.47164391  0.22162143  0.41449674  1
  As  As17  1  0.97161427  0.72156905  0.41448978  1
  As  As18  1  0.52834295  0.77837130  0.58548109  1
  As  As19  1  0.02838121  0.27841641  0.58547984  1
  C  C20  1  0.73600407  0.98599482  0.05376916  1
  C  C21  1  0.23592643  0.48591820  0.05368355  1
  C  C22  1  0.26401279  0.01403995  0.94624868  1
  C  C23  1  0.76406937  0.51407001  0.94627460  1
  O  O24  1  0.26952397  0.01957261  0.08712103  1
  O  O25  1  0.76971041  0.51970361  0.08712868  1
  O  O26  1  0.73052586  0.98049677  0.91290136  1
  O  O27  1  0.23025321  0.48024831  0.91283938  1
  O  O28  1  0.84769695  0.09767377  0.11811093  1
  O  O29  1  0.34766354  0.59768918  0.11787955  1
  O  O30  1  0.15230240  0.90235434  0.88194067  1
  O  O31  1  0.65233310  0.40230657  0.88207163  1
  O  O32  1  0.63102139  0.88104662  0.13279045  1
  O  O33  1  0.13106402  0.38102239  0.13286652  1
  O  O34  1  0.36898325  0.11895958  0.86719940  1
  O  O35  1  0.86895868  0.61899206  0.86714276  1
  O  O36  1  0.30701648  0.05707937  0.43973296  1
  O  O37  1  0.80704221  0.55699224  0.43979181  1
  O  O38  1  0.69295345  0.94292233  0.56028127  1
  O  O39  1  0.19297564  0.44297701  0.56022194  1
  O  O40  1  0.45524375  0.70517966  0.42117775  1
  O  O41  1  0.95525816  0.20520107  0.42121728  1
  O  O42  1  0.54473723  0.29480485  0.57881821  1
  O  O43  1  0.04473482  0.79477573  0.57879800  1
  O  O44  1  0.41244326  0.36183474  0.30580694  1
  O  O45  1  0.91234628  0.86177279  0.30585354  1
  O  O46  1  0.61187726  0.16230339  0.30593079  1
  O  O47  1  0.11187623  0.66231815  0.30591287  1
  O  O48  1  0.38811192  0.83768604  0.69408676  1
  O  O49  1  0.88811727  0.33767664  0.69407779  1
  O  O50  1  0.58756158  0.63816463  0.69417682  1
  O  O51  1  0.08762535  0.13820189  0.69417448  1
