# generated using pymatgen
data_Ba8In8O19
_symmetry_space_group_name_H-M   'P 1'
_cell_length_a   9.41062933
_cell_length_b   9.41062933
_cell_length_c   8.51715386
_cell_angle_alpha   89.25019468
_cell_angle_beta   89.25019468
_cell_angle_gamma   125.27766454
_symmetry_Int_Tables_number   1
_chemical_formula_structural   Ba8In8O19
_chemical_formula_sum   'Ba8 In8 O19'
_cell_volume   615.51538676
_cell_formula_units_Z   1
loop_
 _symmetry_equiv_pos_site_id
 _symmetry_equiv_pos_as_xyz
  1  'x, y, z'
loop_
 _atom_site_type_symbol
 _atom_site_label
 _atom_site_symmetry_multiplicity
 _atom_site_fract_x
 _atom_site_fract_y
 _atom_site_fract_z
 _atom_site_occupancy
  Ba  Ba0  1  0.87005987  0.15982553  0.75337984  1
  Ba  Ba1  1  0.85587154  0.13055605  0.24172612  1
  Ba  Ba2  1  0.63353540  0.35336678  0.73931140  1
  Ba  Ba3  1  0.35336678  0.63353540  0.73931140  1
  Ba  Ba4  1  0.65028620  0.37317578  0.25201786  1
  Ba  Ba5  1  0.15982553  0.87005987  0.75337984  1
  Ba  Ba6  1  0.37317578  0.65028620  0.25201786  1
  Ba  Ba7  1  0.13055605  0.85587154  0.24172612  1
  In  In8  1  0.50372564  -0.00059223  0.99897861  1
  In  In9  1  0.74306194  0.74306194  0.91043776  1
  In  In10  1  0.79498421  0.79498421  0.55551210  1
  In  In11  1  0.50325228  0.99888438  0.49700788  1
  In  In12  1  -0.00059223  0.50372564  0.99897861  1
  In  In13  1  0.99888438  0.50325228  0.49700788  1
  In  In14  1  0.23314456  0.23314456  0.46051229  1
  In  In15  1  0.29427154  0.29427154  0.01529432  1
  O  O16  1  0.51087748  0.99636917  0.74844655  1
  O  O17  1  0.75873680  0.24297710  0.49412473  1
  O  O18  1  0.99636917  0.51087748  0.74844655  1
  O  O19  1  0.74253616  0.25989652  0.99390151  1
  O  O20  1  0.25989652  0.74253616  0.99390151  1
  O  O21  1  0.50089347  0.50089347  0.88568833  1
  O  O22  1  0.32404153  0.09784686  0.98182442  1
  O  O23  1  0.09784686  0.32404153  0.98182442  1
  O  O24  1  0.60418545  0.82855615  0.48242682  1
  O  O25  1  0.82855615  0.60418545  0.48242682  1
  O  O26  1  0.88484008  0.66407037  0.02094371  1
  O  O27  1  0.66407037  0.88484008  0.02094371  1
  O  O28  1  0.15284033  0.38143906  0.53707625  1
  O  O29  1  0.38143906  0.15284033  0.53707625  1
  O  O30  1  0.35923769  0.35923769  0.24868131  1
  O  O31  1  0.49858322  0.01203689  0.24766468  1
  O  O32  1  0.01203689  0.49858322  0.24766468  1
  O  O33  1  0.24297710  0.75873680  0.49412473  1
  O  O34  1  0.99860417  0.99860417  0.41294613  1
