# generated using pymatgen
data_Bi2Te7Cl8
_symmetry_space_group_name_H-M   'P 1'
_cell_length_a   5.59870800
_cell_length_b   13.55310458
_cell_length_c   15.51883624
_cell_angle_alpha   103.82341231
_cell_angle_beta   95.23459659
_cell_angle_gamma   96.45966563
_symmetry_Int_Tables_number   1
_chemical_formula_structural   Bi2Te7Cl8
_chemical_formula_sum   'Bi4 Te14 Cl16'
_cell_volume   1127.65633992
_cell_formula_units_Z   2
loop_
 _symmetry_equiv_pos_site_id
 _symmetry_equiv_pos_as_xyz
  1  'x, y, z'
loop_
 _atom_site_type_symbol
 _atom_site_label
 _atom_site_symmetry_multiplicity
 _atom_site_fract_x
 _atom_site_fract_y
 _atom_site_fract_z
 _atom_site_occupancy
  Bi  Bi0  1  0.79431200  0.25893800  0.27728200  1
  Bi  Bi1  1  0.21018500  0.74391900  0.72808100  1
  Bi  Bi2  1  0.90329300  0.59478900  0.38871700  1
  Bi  Bi3  1  0.08672500  0.40935200  0.60903900  1
  Te  Te4  1  0.81277600  0.98182500  0.55962400  1
  Te  Te5  1  0.19113400  0.02032800  0.43561800  1
  Te  Te6  1  0.45892400  0.80750000  0.16616800  1
  Te  Te7  1  0.52818300  0.19036300  0.83069600  1
  Te  Te8  1  0.16804200  0.95879000  0.15406300  1
  Te  Te9  1  0.83361700  0.04696300  0.84987700  1
  Te  Te10  1  0.77197300  0.83517700  0.03309000  1
  Te  Te11  1  0.22318300  0.16000500  0.96421900  1
  Te  Te12  1  0.05360700  0.65135700  0.04912500  1
  Te  Te13  1  0.94442000  0.35305700  0.95562500  1
  Te  Te14  1  0.35085900  0.49079000  0.07107900  1
  Te  Te15  1  0.65269600  0.50952500  0.93407600  1
  Te  Te16  1  0.55618100  0.14379200  0.56164500  1
  Te  Te17  1  0.43780800  0.85463800  0.43901900  1
  Cl  Cl18  1  0.79961000  0.15522400  0.11379000  1
  Cl  Cl19  1  0.20298600  0.84462100  0.88820800  1
  Cl  Cl20  1  0.34514200  0.27559800  0.22908800  1
  Cl  Cl21  1  0.65134400  0.72208300  0.76928300  1
  Cl  Cl22  1  0.91131400  0.45116600  0.22502000  1
  Cl  Cl23  1  0.09269000  0.55356300  0.77566900  1
  Cl  Cl24  1  0.84237500  0.74173100  0.53503700  1
  Cl  Cl25  1  0.15944400  0.26389400  0.46351800  1
  Cl  Cl26  1  0.72936800  0.42635300  0.44372700  1
  Cl  Cl27  1  0.27384400  0.57958800  0.56165000  1
  Cl  Cl28  1  0.47813400  0.60159900  0.32915800  1
  Cl  Cl29  1  0.53414800  0.39631300  0.67224600  1
  Cl  Cl30  1  0.01776800  0.75443800  0.31254900  1
  Cl  Cl31  1  0.99442200  0.24551500  0.68832900  1
  Cl  Cl32  1  0.35281100  0.92176000  0.69077900  1
  Cl  Cl33  1  0.65081900  0.07996900  0.30614200  1
