# generated using pymatgen
data_Ge(BrF5)2
_symmetry_space_group_name_H-M   'P 1'
_cell_length_a   14.18589600
_cell_length_b   5.13214900
_cell_length_c   6.40218033
_cell_angle_alpha   69.42588522
_cell_angle_beta   90.00000000
_cell_angle_gamma   90.00000000
_symmetry_Int_Tables_number   1
_chemical_formula_structural   Ge(BrF5)2
_chemical_formula_sum   'Ge2 Br4 F20'
_cell_volume   436.37624557
_cell_formula_units_Z   2
loop_
 _symmetry_equiv_pos_site_id
 _symmetry_equiv_pos_as_xyz
  1  'x, y, z'
loop_
 _atom_site_type_symbol
 _atom_site_label
 _atom_site_symmetry_multiplicity
 _atom_site_fract_x
 _atom_site_fract_y
 _atom_site_fract_z
 _atom_site_occupancy
  Ge  Ge0  1  0.00225200  0.99358500  0.99821200  1
  Ge  Ge1  1  0.50293000  0.49483500  0.50341000  1
  Br  Br2  1  0.36659000  0.15563600  0.17339800  1
  Br  Br3  1  0.86551200  0.34729900  0.32315100  1
  Br  Br4  1  0.13238700  0.65499200  0.66710100  1
  Br  Br5  1  0.63381100  0.84410000  0.83382800  1
  F  F6  1  0.67290600  0.94814800  0.05926800  1
  F  F7  1  0.17628500  0.55334500  0.43825600  1
  F  F8  1  0.32277200  0.05943600  0.94545500  1
  F  F9  1  0.82301300  0.44352000  0.56083700  1
  F  F10  1  0.71504000  0.55699200  0.89854100  1
  F  F11  1  0.21661200  0.93752900  0.60183100  1
  F  F12  1  0.96497500  0.69888100  0.26776900  1
  F  F13  1  0.46028500  0.79254200  0.24071900  1
  F  F14  1  0.03668400  0.28534000  0.74572700  1
  F  F15  1  0.53512000  0.20112000  0.76918900  1
  F  F16  1  0.90295100  0.23898900  0.04848700  1
  F  F17  1  0.40736700  0.25980700  0.45108700  1
  F  F18  1  0.09777800  0.77139800  0.95024800  1
  F  F19  1  0.59802600  0.73154500  0.54866200  1
  F  F20  1  0.91822000  0.89622500  0.83708300  1
  F  F21  1  0.42145700  0.60366300  0.66445100  1
  F  F22  1  0.08280500  0.11299400  0.16484900  1
  F  F23  1  0.58141200  0.37890600  0.33865700  1
  F  F24  1  0.78761000  0.05711500  0.40618300  1
  F  F25  1  0.28487300  0.44285500  0.10148100  1
