# generated using pymatgen
data_Dy2CO5
_symmetry_space_group_name_H-M   'P 1'
_cell_length_a   3.88446969
_cell_length_b   3.81735618
_cell_length_c   15.09285933
_cell_angle_alpha   90.00005190
_cell_angle_beta   89.99996121
_cell_angle_gamma   120.58682703
_symmetry_Int_Tables_number   1
_chemical_formula_structural   Dy2CO5
_chemical_formula_sum   'Dy4 C2 O10'
_cell_volume   192.66285414
_cell_formula_units_Z   2
loop_
 _symmetry_equiv_pos_site_id
 _symmetry_equiv_pos_as_xyz
  1  'x, y, z'
loop_
 _atom_site_type_symbol
 _atom_site_label
 _atom_site_symmetry_multiplicity
 _atom_site_fract_x
 _atom_site_fract_y
 _atom_site_fract_z
 _atom_site_occupancy
  Dy  Dy0  1  0.32439432  0.66529972  0.09322066  1
  Dy  Dy1  1  0.32439138  0.66530081  0.40677881  1
  Dy  Dy2  1  0.65892986  0.33480399  0.59324990  1
  Dy  Dy3  1  0.65893476  0.33480297  0.90674967  1
  C  C4  1  0.84043845  0.92692762  0.24999876  1
  C  C5  1  0.91311780  0.07304464  0.75000141  1
  O  O6  1  0.32565567  0.66333517  0.55742176  1
  O  O7  1  0.01990419  0.01358994  0.32593548  1
  O  O8  1  0.01990312  0.01358864  0.17406586  1
  O  O9  1  0.00582483  0.98636861  0.67406662  1
  O  O10  1  0.00582384  0.98636932  0.82593225  1
  O  O11  1  0.32565532  0.66333000  0.94257816  1
  O  O12  1  0.46003316  0.74375873  0.25000025  1
  O  O13  1  0.66250174  0.33671329  0.05741395  1
  O  O14  1  0.66249496  0.33671286  0.44258538  1
  O  O15  1  0.71592659  0.25625269  0.75000008  1
