# generated using pymatgen
data_Ce3Th4O14
_symmetry_space_group_name_H-M   'P 1'
_cell_length_a   6.77455086
_cell_length_b   6.77455086
_cell_length_c   8.75018404
_cell_angle_alpha   82.60654324
_cell_angle_beta   82.60654324
_cell_angle_gamma   48.21091711
_symmetry_Int_Tables_number   1
_chemical_formula_structural   Ce3Th4O14
_chemical_formula_sum   'Ce3 Th4 O14'
_cell_volume   296.43312784
_cell_formula_units_Z   1
loop_
 _symmetry_equiv_pos_site_id
 _symmetry_equiv_pos_as_xyz
  1  'x, y, z'
loop_
 _atom_site_type_symbol
 _atom_site_label
 _atom_site_symmetry_multiplicity
 _atom_site_fract_x
 _atom_site_fract_y
 _atom_site_fract_z
 _atom_site_occupancy
  Ce  Ce0  1  0.42912935  0.42912935  0.71491476  1
  Ce  Ce1  1  -0.00000000  -0.00000000  -0.00000000  1
  Ce  Ce2  1  0.57087065  0.57087065  0.28508524  1
  Th  Th3  1  0.14183782  0.14183782  0.57189241  1
  Th  Th4  1  0.71390228  0.71390228  0.85827419  1
  Th  Th5  1  0.28609772  0.28609772  0.14172581  1
  Th  Th6  1  0.85816218  0.85816218  0.42810759  1
  O  O7  1  0.03970822  0.53445665  0.64409683  1
  O  O8  1  0.53445665  0.03970822  0.64409683  1
  O  O9  1  0.10872319  0.60954432  0.92782624  1
  O  O10  1  0.60954432  0.10872319  0.92782624  1
  O  O11  1  0.81930355  0.31889121  0.78715031  1
  O  O12  1  0.31889121  0.81930355  0.78715031  1
  O  O13  1  0.39045568  0.89127681  0.07217376  1
  O  O14  1  0.68110879  0.18069645  0.21284969  1
  O  O15  1  0.46554335  0.96029178  0.35590317  1
  O  O16  1  0.96029178  0.46554335  0.35590317  1
  O  O17  1  0.18069645  0.68110879  0.21284969  1
  O  O18  1  0.89127681  0.39045568  0.07217376  1
  O  O19  1  0.74446820  0.25553180  0.50000000  1
  O  O20  1  0.25553180  0.74446820  0.50000000  1
