# generated using pymatgen
data_BaP3
_symmetry_space_group_name_H-M   'P 1'
_cell_length_a   4.78766287
_cell_length_b   7.05432172
_cell_length_c   7.05432338
_cell_angle_alpha   66.48236493
_cell_angle_beta   71.34434288
_cell_angle_gamma   71.34433610
_symmetry_Int_Tables_number   1
_chemical_formula_structural   BaP3
_chemical_formula_sum   'Ba2 P6'
_cell_volume   201.85164283
_cell_formula_units_Z   2
loop_
 _symmetry_equiv_pos_site_id
 _symmetry_equiv_pos_as_xyz
  1  'x, y, z'
loop_
 _atom_site_type_symbol
 _atom_site_label
 _atom_site_symmetry_multiplicity
 _atom_site_fract_x
 _atom_site_fract_y
 _atom_site_fract_z
 _atom_site_occupancy
  Ba  Ba0  1  0.31542423  0.82614503  0.82614503  1
  Ba  Ba1  1  0.68457577  0.17385497  0.17385497  1
  P  P2  1  0.02374969  0.59042138  0.59042138  1
  P  P3  1  0.97625031  0.40957862  0.40957862  1
  P  P4  1  0.70830229  0.64835910  0.18681179  1
  P  P5  1  0.29169771  0.81318821  0.35164090  1
  P  P6  1  0.29169771  0.35164090  0.81318821  1
  P  P7  1  0.70830229  0.18681179  0.64835910  1
