# generated using pymatgen
data_Lu2TeO6
_symmetry_space_group_name_H-M   'P 1'
_cell_length_a   5.13487021
_cell_length_b   8.88327048
_cell_length_c   9.74051323
_cell_angle_alpha   90.00000000
_cell_angle_beta   90.00000000
_cell_angle_gamma   90.00000000
_symmetry_Int_Tables_number   1
_chemical_formula_structural   Lu2TeO6
_chemical_formula_sum   'Lu8 Te4 O24'
_cell_volume   444.30806560
_cell_formula_units_Z   4
loop_
 _symmetry_equiv_pos_site_id
 _symmetry_equiv_pos_as_xyz
  1  'x, y, z'
loop_
 _atom_site_type_symbol
 _atom_site_label
 _atom_site_symmetry_multiplicity
 _atom_site_fract_x
 _atom_site_fract_y
 _atom_site_fract_z
 _atom_site_occupancy
  Lu  Lu0  1  0.01522306  0.39572803  0.03694216  1
  Lu  Lu1  1  0.04043501  0.28312751  0.63393898  1
  Lu  Lu2  1  0.45956499  0.71687249  0.13393898  1
  Lu  Lu3  1  0.48477694  0.60427197  0.53694216  1
  Lu  Lu4  1  0.51522306  0.10427197  0.96305784  1
  Lu  Lu5  1  0.54043501  0.21687249  0.36606102  1
  Lu  Lu6  1  0.95956499  0.78312751  0.86606102  1
  Lu  Lu7  1  0.98477694  0.89572803  0.46305784  1
  Te  Te8  1  0.03610956  0.00512245  0.15000274  1
  Te  Te9  1  0.46389044  0.99487755  0.65000274  1
  Te  Te10  1  0.53610956  0.49487755  0.84999726  1
  Te  Te11  1  0.96389044  0.50512245  0.34999726  1
  O  O12  1  0.09497411  0.65754051  0.46984362  1
  O  O13  1  0.17114383  0.54936909  0.19500362  1
  O  O14  1  0.19167652  0.85647288  0.26348825  1
  O  O15  1  0.17603902  0.85833922  0.67986389  1
  O  O16  1  0.23875194  0.38335395  0.42870210  1
  O  O17  1  0.24126036  0.91553692  0.00279862  1
  O  O18  1  0.25873964  0.08446308  0.50279862  1
  O  O19  1  0.26124806  0.61664605  0.92870210  1
  O  O20  1  0.32396098  0.14166078  0.17986389  1
  O  O21  1  0.30832348  0.14352712  0.76348825  1
  O  O22  1  0.32885617  0.45063091  0.69500362  1
  O  O23  1  0.40502589  0.34245949  0.96984362  1
  O  O24  1  0.59497411  0.84245949  0.53015638  1
  O  O25  1  0.67114383  0.95063091  0.80499638  1
  O  O26  1  0.69167652  0.64352712  0.73651175  1
  O  O27  1  0.67603902  0.64166078  0.32013611  1
  O  O28  1  0.73875194  0.11664605  0.57129790  1
  O  O29  1  0.74126036  0.58446308  0.99720138  1
  O  O30  1  0.75873964  0.41553692  0.49720138  1
  O  O31  1  0.76124806  0.88335395  0.07129790  1
  O  O32  1  0.82396098  0.35833922  0.82013611  1
  O  O33  1  0.80832348  0.35647288  0.23651175  1
  O  O34  1  0.82885617  0.04936909  0.30499638  1
  O  O35  1  0.90502589  0.15754051  0.03015638  1
