# generated using pymatgen
data_Li3VS4
_symmetry_space_group_name_H-M   'P 1'
_cell_length_a   17.98387799
_cell_length_b   13.51537641
_cell_length_c   12.96537585
_cell_angle_alpha   85.52469258
_cell_angle_beta   48.52424093
_cell_angle_gamma   45.95106648
_symmetry_Int_Tables_number   1
_chemical_formula_structural   Li3VS4
_chemical_formula_sum   'Li24 V8 S32'
_cell_volume   1194.70804762
_cell_formula_units_Z   8
loop_
 _symmetry_equiv_pos_site_id
 _symmetry_equiv_pos_as_xyz
  1  'x, y, z'
loop_
 _atom_site_type_symbol
 _atom_site_label
 _atom_site_symmetry_multiplicity
 _atom_site_fract_x
 _atom_site_fract_y
 _atom_site_fract_z
 _atom_site_occupancy
  Li  Li0  1  0.50624800  0.99375200  0.99375200  1
  Li  Li1  1  0.01973200  0.48026800  0.48026800  1
  Li  Li2  1  0.23290100  0.77543200  0.26094700  1
  Li  Li3  1  0.42524500  0.32124200  0.12442200  1
  Li  Li4  1  0.05528300  0.16476400  0.63469500  1
  Li  Li5  1  0.08976500  0.72421300  0.63538900  1
  Li  Li6  1  0.93295400  0.62314500  0.80974900  1
  Li  Li7  1  0.44025100  0.61584800  0.31704600  1
  Li  Li8  1  0.61461100  0.69936700  0.16023500  1
  Li  Li9  1  0.61530500  0.10474100  0.19471700  1
  Li  Li10  1  0.12557800  0.12090900  0.82475500  1
  Li  Li11  1  0.98905300  0.51928000  0.01709900  1
  Li  Li12  1  0.25624800  0.74375200  0.74375200  1
  Li  Li13  1  0.76973200  0.23026800  0.23026800  1
  Li  Li14  1  0.47456800  0.01709900  0.51928000  1
  Li  Li15  1  0.92875800  0.82475500  0.12090900  1
  Li  Li16  1  0.08523600  0.19471700  0.10474100  1
  Li  Li17  1  0.52578700  0.16023500  0.69936700  1
  Li  Li18  1  0.62685500  0.31704600  0.61584800  1
  Li  Li19  1  0.63415200  0.80974900  0.62314500  1
  Li  Li20  1  0.55063300  0.63538900  0.72421300  1
  Li  Li21  1  0.14525900  0.63469500  0.16476400  1
  Li  Li22  1  0.12909100  0.12442200  0.32124200  1
  Li  Li23  1  0.73072000  0.26094700  0.77543200  1
  V  V24  1  0.59151400  0.67852000  0.92674000  1
  V  V25  1  0.31670300  0.17130500  0.42839700  1
  V  V26  1  0.82160300  0.16640500  0.93329700  1
  V  V27  1  0.32326000  0.44677400  0.65848600  1
  V  V28  1  0.57148000  0.65848600  0.44677400  1
  V  V29  1  0.07869500  0.93329700  0.16640500  1
  V  V30  1  0.08359500  0.42839700  0.17130500  1
  V  V31  1  0.80322600  0.92674000  0.67852000  1
  S  S32  1  0.10203000  0.71030100  0.39535700  1
  S  S33  1  0.38637300  0.78864600  0.21145500  1
  S  S34  1  0.75739500  0.64993700  0.85291300  1
  S  S35  1  0.24398200  0.14932300  0.36090700  1
  S  S36  1  0.74815600  0.94072700  0.88928900  1
  S  S37  1  0.53608100  0.39000700  0.11043300  1
  S  S38  1  0.03295600  0.96640400  0.63346400  1
  S  S39  1  0.26503700  0.37134800  0.42657400  1
  S  S40  1  0.82342600  0.31295900  0.98496300  1
  S  S41  1  0.61653600  0.88282400  0.21704400  1
  S  S42  1  0.13956700  0.28652000  0.71391900  1
  S  S43  1  0.36071100  0.82817200  0.50184400  1
  S  S44  1  0.88909300  0.00421300  0.00601800  1
  S  S45  1  0.39708700  0.51024500  0.49260500  1
  S  S46  1  0.03854500  0.63647300  0.86362700  1
  S  S47  1  0.85464300  0.45768900  0.14797000  1
  S  S48  1  0.53969900  0.14797000  0.45768900  1
  S  S49  1  0.46135400  0.86362700  0.63647300  1
  S  S50  1  0.60006300  0.49260500  0.51024500  1
  S  S51  1  0.10067700  0.00601800  0.00421300  1
  S  S52  1  0.30927300  0.50184400  0.82817200  1
  S  S53  1  0.85999300  0.71391900  0.28652000  1
  S  S54  1  0.28359600  0.21704400  0.88282400  1
  S  S55  1  0.87865200  0.98496300  0.31295900  1
  S  S56  1  0.93704100  0.42657400  0.37134800  1
  S  S57  1  0.36717600  0.63346400  0.96640400  1
  S  S58  1  0.96348000  0.11043300  0.39000700  1
  S  S59  1  0.42182800  0.88928900  0.94072700  1
  S  S60  1  0.24578700  0.36090700  0.14932300  1
  S  S61  1  0.73975500  0.85291300  0.64993700  1
  S  S62  1  0.61352700  0.21145500  0.78864600  1
  S  S63  1  0.79231100  0.39535700  0.71030100  1
