# generated using pymatgen
data_K2Sn2S5
_symmetry_space_group_name_H-M   'P 1'
_cell_length_a   6.80468021
_cell_length_b   6.80468080
_cell_length_c   11.68395660
_cell_angle_alpha   75.06013020
_cell_angle_beta   75.06012756
_cell_angle_gamma   70.34908384
_symmetry_Int_Tables_number   1
_chemical_formula_structural   K2Sn2S5
_chemical_formula_sum   'K4 Sn4 S10'
_cell_volume   483.49625581
_cell_formula_units_Z   2
loop_
 _symmetry_equiv_pos_site_id
 _symmetry_equiv_pos_as_xyz
  1  'x, y, z'
loop_
 _atom_site_type_symbol
 _atom_site_label
 _atom_site_symmetry_multiplicity
 _atom_site_fract_x
 _atom_site_fract_y
 _atom_site_fract_z
 _atom_site_occupancy
  K  K0  1  0.55429665  0.88431527  0.18317508  1
  K  K1  1  0.11568473  0.44570335  0.31682492  1
  K  K2  1  0.44570335  0.11568473  0.81682492  1
  K  K3  1  0.88431527  0.55429665  0.68317508  1
  Sn  Sn4  1  0.93781471  0.24997857  0.05780178  1
  Sn  Sn5  1  0.75002143  0.06218529  0.44219822  1
  Sn  Sn6  1  0.06218529  0.75002143  0.94219822  1
  Sn  Sn7  1  0.24997857  0.93781471  0.55780178  1
  S  S8  1  0.25235512  0.35481242  0.03789024  1
  S  S9  1  0.64518758  0.74764488  0.46210976  1
  S  S10  1  0.74764488  0.64518758  0.96210976  1
  S  S11  1  0.35481242  0.25235512  0.53789024  1
  S  S12  1  0.68364252  0.31635748  0.25000000  1
  S  S13  1  0.31635748  0.68364252  0.75000000  1
  S  S14  1  0.88779870  0.15032078  0.88250976  1
  S  S15  1  0.84967922  0.11220130  0.61749024  1
  S  S16  1  0.15032078  0.88779870  0.38250976  1
  S  S17  1  0.11220130  0.84967922  0.11749024  1
