# generated using pymatgen
data_LuBr3
_symmetry_space_group_name_H-M   'P 1'
_cell_length_a   10.14080839
_cell_length_b   10.14081061
_cell_length_c   3.63256450
_cell_angle_alpha   90.00000000
_cell_angle_beta   90.00000000
_cell_angle_gamma   119.99998666
_symmetry_Int_Tables_number   1
_chemical_formula_structural   LuBr3
_chemical_formula_sum   'Lu2 Br6'
_cell_volume   323.51116455
_cell_formula_units_Z   2
loop_
 _symmetry_equiv_pos_site_id
 _symmetry_equiv_pos_as_xyz
  1  'x, y, z'
loop_
 _atom_site_type_symbol
 _atom_site_label
 _atom_site_symmetry_multiplicity
 _atom_site_fract_x
 _atom_site_fract_y
 _atom_site_fract_z
 _atom_site_occupancy
  Lu  Lu0  1  0.33333300  0.66666600  0.75000100  1
  Lu  Lu1  1  0.66666800  0.33333300  0.25000000  1
  Br  Br2  1  0.21558183  0.43116467  0.25000000  1
  Br  Br3  1  0.56883533  0.78441817  0.25000000  1
  Br  Br4  1  0.21558283  0.78441817  0.25000000  1
  Br  Br5  1  0.78441817  0.56883633  0.75000100  1
  Br  Br6  1  0.43116367  0.21558183  0.75000100  1
  Br  Br7  1  0.78441817  0.21558183  0.75000100  1
