# generated using pymatgen
data_Mn11ZnO16
_symmetry_space_group_name_H-M   'P 1'
_cell_length_a   6.21644766
_cell_length_b   6.21644766
_cell_length_c   8.16875485
_cell_angle_alpha   90.00000000
_cell_angle_beta   90.00000000
_cell_angle_gamma   97.86949501
_symmetry_Int_Tables_number   1
_chemical_formula_structural   Mn11ZnO16
_chemical_formula_sum   'Mn11 Zn1 O16'
_cell_volume   312.70230087
_cell_formula_units_Z   1
loop_
 _symmetry_equiv_pos_site_id
 _symmetry_equiv_pos_as_xyz
  1  'x, y, z'
loop_
 _atom_site_type_symbol
 _atom_site_label
 _atom_site_symmetry_multiplicity
 _atom_site_fract_x
 _atom_site_fract_y
 _atom_site_fract_z
 _atom_site_occupancy
  Mn  Mn0  1  0.75168354  0.00046044  0.62685046  1
  Mn  Mn1  1  0.24831646  0.99953956  0.62685046  1
  Mn  Mn2  1  0.49828574  0.24865561  0.87642202  1
  Mn  Mn3  1  0.50171426  0.75134439  0.87642202  1
  Mn  Mn4  1  0.75134439  0.50171426  0.12357798  1
  Mn  Mn5  1  -0.00000000  0.50000000  0.75063686  1
  Mn  Mn6  1  0.50000000  0.00000000  0.24936314  1
  Mn  Mn7  1  0.24865561  0.49828574  0.12357798  1
  Mn  Mn8  1  0.99953956  0.24831646  0.37314954  1
  Mn  Mn9  1  0.00046044  0.75168354  0.37314954  1
  Mn  Mn10  1  0.50000000  0.50000000  0.50000000  1
  Zn  Zn11  1  -0.00000000  0.00000000  -0.00000000  1
  O  O12  1  0.49254925  0.22908657  0.63966022  1
  O  O13  1  0.72880283  0.49280853  0.88773386  1
  O  O14  1  0.50745075  0.77091343  0.63966022  1
  O  O15  1  0.73421999  0.99362242  0.86443825  1
  O  O16  1  0.26578001  0.00637758  0.86443825  1
  O  O17  1  0.50719147  0.27119717  0.11226614  1
  O  O18  1  0.27119717  0.50719147  0.88773386  1
  O  O19  1  0.00637758  0.26578001  0.13556175  1
  O  O20  1  0.49280853  0.72880283  0.11226614  1
  O  O21  1  0.22908657  0.49254925  0.36033978  1
  O  O22  1  0.99362242  0.73421999  0.13556175  1
  O  O23  1  0.23038822  0.99389374  0.38923114  1
  O  O24  1  0.99389374  0.23038822  0.61076886  1
  O  O25  1  0.76961178  0.00610626  0.38923114  1
  O  O26  1  0.77091343  0.50745075  0.36033978  1
  O  O27  1  0.00610626  0.76961178  0.61076886  1
