# generated using pymatgen
data_AlCuTe2
_symmetry_space_group_name_H-M   'P 1'
_cell_length_a   6.03458634
_cell_length_b   6.03458670
_cell_length_c   7.36743748
_cell_angle_alpha   114.17621995
_cell_angle_beta   114.17623458
_cell_angle_gamma   89.99999776
_symmetry_Int_Tables_number   1
_chemical_formula_structural   AlCuTe2
_chemical_formula_sum   'Al2 Cu2 Te4'
_cell_volume   218.71279784
_cell_formula_units_Z   2
loop_
 _symmetry_equiv_pos_site_id
 _symmetry_equiv_pos_as_xyz
  1  'x, y, z'
loop_
 _atom_site_type_symbol
 _atom_site_label
 _atom_site_symmetry_multiplicity
 _atom_site_fract_x
 _atom_site_fract_y
 _atom_site_fract_z
 _atom_site_occupancy
  Al  Al0  1  0.75000000  0.25000000  0.50000000  1
  Al  Al1  1  0.50000000  0.50000000  0.00000000  1
  Cu  Cu2  1  0.25000000  0.75000000  0.50000000  1
  Cu  Cu3  1  -0.00000000  0.00000000  0.00000000  1
  Te  Te4  1  0.36664375  0.37500000  0.25000000  1
  Te  Te5  1  0.12500000  0.63335625  0.75000000  1
  Te  Te6  1  0.62500000  0.11664375  0.75000000  1
  Te  Te7  1  0.88335625  0.87500000  0.25000000  1
