# generated using pymatgen
data_KNa2BO3
_symmetry_space_group_name_H-M   'P 1'
_cell_length_a   5.53789069
_cell_length_b   5.57332288
_cell_length_c   5.96624965
_cell_angle_alpha   90.00000000
_cell_angle_beta   90.00000000
_cell_angle_gamma   90.00000000
_symmetry_Int_Tables_number   1
_chemical_formula_structural   KNa2BO3
_chemical_formula_sum   'K2 Na4 B2 O6'
_cell_volume   184.14503125
_cell_formula_units_Z   2
loop_
 _symmetry_equiv_pos_site_id
 _symmetry_equiv_pos_as_xyz
  1  'x, y, z'
loop_
 _atom_site_type_symbol
 _atom_site_label
 _atom_site_symmetry_multiplicity
 _atom_site_fract_x
 _atom_site_fract_y
 _atom_site_fract_z
 _atom_site_occupancy
  K  K0  1  0.92092156  0.50000000  0.50000000  1
  K  K1  1  0.07907844  0.00000000  0.00000000  1
  Na  Na2  1  0.37502995  0.50000000  0.77050891  1
  Na  Na3  1  0.37502995  0.50000000  0.22949109  1
  Na  Na4  1  0.62497005  0.00000000  0.72949109  1
  Na  Na5  1  0.62497005  0.00000000  0.27050891  1
  B  B6  1  0.79594243  0.50000000  0.00000000  1
  B  B7  1  0.20405757  0.00000000  0.50000000  1
  O  O8  1  0.66408454  0.28668319  0.00000000  1
  O  O9  1  0.33591546  0.21331681  0.50000000  1
  O  O10  1  0.04502979  0.50000000  0.00000000  1
  O  O11  1  0.95497021  0.00000000  0.50000000  1
  O  O12  1  0.33591546  0.78668319  0.50000000  1
  O  O13  1  0.66408454  0.71331681  0.00000000  1
