# generated using pymatgen
data_Na2Zn2O3
_symmetry_space_group_name_H-M   'P 1'
_cell_length_a   5.78548701
_cell_length_b   5.92625146
_cell_length_c   5.87741748
_cell_angle_alpha   90.00000000
_cell_angle_beta   90.00000000
_cell_angle_gamma   118.23805115
_symmetry_Int_Tables_number   1
_chemical_formula_structural   Na2Zn2O3
_chemical_formula_sum   'Na4 Zn4 O6'
_cell_volume   177.53224101
_cell_formula_units_Z   2
loop_
 _symmetry_equiv_pos_site_id
 _symmetry_equiv_pos_as_xyz
  1  'x, y, z'
loop_
 _atom_site_type_symbol
 _atom_site_label
 _atom_site_symmetry_multiplicity
 _atom_site_fract_x
 _atom_site_fract_y
 _atom_site_fract_z
 _atom_site_occupancy
  Na  Na0  1  0.86397893  0.09798105  0.34352867  1
  Na  Na1  1  0.86397893  0.59798105  0.15647133  1
  Na  Na2  1  0.13602107  0.90201895  0.65647133  1
  Na  Na3  1  0.13602107  0.40201895  0.84352867  1
  Zn  Zn4  1  0.34109990  0.07902481  0.12300047  1
  Zn  Zn5  1  0.34109990  0.57902481  0.37699953  1
  Zn  Zn6  1  0.65890010  0.92097519  0.87699953  1
  Zn  Zn7  1  0.65890010  0.42097519  0.62300047  1
  O  O8  1  0.00000000  0.50000000  0.50000000  1
  O  O9  1  0.64423199  0.75670436  0.58686869  1
  O  O10  1  0.35576801  0.74329564  0.08686869  1
  O  O11  1  0.35576801  0.24329564  0.41313131  1
  O  O12  1  0.00000000  -0.00000000  0.00000000  1
  O  O13  1  0.64423199  0.25670436  0.91313131  1
