# generated using pymatgen
data_KNa2LiZr2(Si2O5)6
_symmetry_space_group_name_H-M   'P 1'
_cell_length_a   10.30095746
_cell_length_b   10.30095746
_cell_length_c   14.61346600
_cell_angle_alpha   90.00000000
_cell_angle_beta   90.00000000
_cell_angle_gamma   120.45954605
_symmetry_Int_Tables_number   1
_chemical_formula_structural   KNa2LiZr2(Si2O5)6
_chemical_formula_sum   'K2 Na4 Li2 Zr4 Si24 O60'
_cell_volume   1336.62409577
_cell_formula_units_Z   2
loop_
 _symmetry_equiv_pos_site_id
 _symmetry_equiv_pos_as_xyz
  1  'x, y, z'
loop_
 _atom_site_type_symbol
 _atom_site_label
 _atom_site_symmetry_multiplicity
 _atom_site_fract_x
 _atom_site_fract_y
 _atom_site_fract_z
 _atom_site_occupancy
  K  K0  1  0.00000000  0.00000000  0.75000000  1
  K  K1  1  0.00000000  0.00000000  0.25000000  1
  Na  Na2  1  0.66603300  0.33026900  0.00000000  1
  Na  Na3  1  0.66973100  0.33396700  0.50000000  1
  Na  Na4  1  0.33396700  0.66973100  0.00000000  1
  Na  Na5  1  0.33026900  0.66603300  0.50000000  1
  Li  Li6  1  0.50000000  0.50000000  0.75000000  1
  Li  Li7  1  0.50000000  0.50000000  0.25000000  1
  Zr  Zr8  1  0.67203400  0.32796600  0.75000000  1
  Zr  Zr9  1  0.67203400  0.32796600  0.25000000  1
  Zr  Zr10  1  0.32796600  0.67203400  0.75000000  1
  Zr  Zr11  1  0.32796600  0.67203400  0.25000000  1
  Si  Si12  1  0.88573200  0.64933800  0.60959100  1
  Si  Si13  1  0.88573200  0.64933800  0.39040900  1
  Si  Si14  1  0.76198000  0.64871800  0.89023300  1
  Si  Si15  1  0.76198000  0.64871800  0.10976700  1
  Si  Si16  1  0.88731300  0.23694600  0.89067800  1
  Si  Si17  1  0.88731300  0.23694600  0.10932200  1
  Si  Si18  1  0.76305400  0.11268700  0.60932200  1
  Si  Si19  1  0.76305400  0.11268700  0.39067800  1
  Si  Si20  1  0.35128200  0.23802000  0.60976700  1
  Si  Si21  1  0.35128200  0.23802000  0.39023300  1
  Si  Si22  1  0.64933800  0.88573200  0.89040900  1
  Si  Si23  1  0.64933800  0.88573200  0.10959100  1
  Si  Si24  1  0.35066200  0.11426800  0.89040900  1
  Si  Si25  1  0.35066200  0.11426800  0.10959100  1
  Si  Si26  1  0.64871800  0.76198000  0.39023300  1
  Si  Si27  1  0.64871800  0.76198000  0.60976700  1
  Si  Si28  1  0.23694600  0.88731300  0.60932200  1
  Si  Si29  1  0.23694600  0.88731300  0.39067800  1
  Si  Si30  1  0.11268700  0.76305400  0.10932200  1
  Si  Si31  1  0.11268700  0.76305400  0.89067800  1
  Si  Si32  1  0.23802000  0.35128200  0.89023300  1
  Si  Si33  1  0.23802000  0.35128200  0.10976700  1
  Si  Si34  1  0.11426800  0.35066200  0.60959100  1
  Si  Si35  1  0.11426800  0.35066200  0.39040900  1
  O  O36  1  0.94204200  0.72487300  0.86729500  1
  O  O37  1  0.94204200  0.72487300  0.13270500  1
  O  O38  1  0.78328000  0.72659400  0.63212000  1
  O  O39  1  0.78328000  0.72659400  0.36788000  1
  O  O40  1  0.86831800  0.60579400  0.50000000  1
  O  O41  1  0.73558000  0.60148800  0.00000000  1
  O  O42  1  0.82908500  0.49549500  0.66387900  1
  O  O43  1  0.82908500  0.49549500  0.33612100  1
  O  O44  1  0.83330000  0.33687100  0.83720300  1
  O  O45  1  0.83330000  0.33687100  0.16279700  1
  O  O46  1  0.94306700  0.21582000  0.63318800  1
  O  O47  1  0.94306700  0.21582000  0.36681200  1
  O  O48  1  0.65837100  0.50027000  0.83063200  1
  O  O49  1  0.65837100  0.50027000  0.16936800  1
  O  O50  1  0.86887000  0.26275000  0.00000000  1
  O  O51  1  0.73725000  0.13113000  0.50000000  1
  O  O52  1  0.49972900  0.34162900  0.66936800  1
  O  O53  1  0.49972900  0.34162900  0.33063200  1
  O  O54  1  0.78418000  0.05693300  0.86681200  1
  O  O55  1  0.78418000  0.05693300  0.13318800  1
  O  O56  1  0.66312900  0.16670000  0.33720300  1
  O  O57  1  0.66312900  0.16670000  0.66279700  1
  O  O58  1  0.50450500  0.17091500  0.83612100  1
  O  O59  1  0.50450500  0.17091500  0.16387900  1
  O  O60  1  0.39851200  0.26442000  0.50000000  1
  O  O61  1  0.72487300  0.94204200  0.63270500  1
  O  O62  1  0.72487300  0.94204200  0.36729500  1
  O  O63  1  0.39420600  0.13168200  0.00000000  1
  O  O64  1  0.27340600  0.21672000  0.86788000  1
  O  O65  1  0.27340600  0.21672000  0.13212000  1
  O  O66  1  0.72659400  0.78328000  0.86788000  1
  O  O67  1  0.72659400  0.78328000  0.13212000  1
  O  O68  1  0.60579400  0.86831800  0.00000000  1
  O  O69  1  0.27512700  0.05795800  0.63270500  1
  O  O70  1  0.27512700  0.05795800  0.36729500  1
  O  O71  1  0.60148800  0.73558000  0.50000000  1
  O  O72  1  0.49549500  0.82908500  0.83612100  1
  O  O73  1  0.49549500  0.82908500  0.16387900  1
  O  O74  1  0.33687100  0.83330000  0.66279700  1
  O  O75  1  0.33687100  0.83330000  0.33720300  1
  O  O76  1  0.21582000  0.94306700  0.86681200  1
  O  O77  1  0.21582000  0.94306700  0.13318800  1
  O  O78  1  0.50027000  0.65837100  0.66936800  1
  O  O79  1  0.50027000  0.65837100  0.33063200  1
  O  O80  1  0.26275000  0.86887000  0.50000000  1
  O  O81  1  0.13113000  0.73725000  0.00000000  1
  O  O82  1  0.34162900  0.49973000  0.83063200  1
  O  O83  1  0.34162900  0.49973000  0.16936800  1
  O  O84  1  0.05693300  0.78418000  0.63318800  1
  O  O85  1  0.05693300  0.78418000  0.36681200  1
  O  O86  1  0.16670000  0.66312900  0.83720300  1
  O  O87  1  0.16670000  0.66312900  0.16279700  1
  O  O88  1  0.17091500  0.50450500  0.66387900  1
  O  O89  1  0.17091500  0.50450500  0.33612100  1
  O  O90  1  0.26442000  0.39851200  0.00000000  1
  O  O91  1  0.13168200  0.39420600  0.50000000  1
  O  O92  1  0.21672000  0.27340600  0.63212000  1
  O  O93  1  0.21672000  0.27340600  0.36788000  1
  O  O94  1  0.05795800  0.27512700  0.86729500  1
  O  O95  1  0.05795800  0.27512700  0.13270500  1
