# generated using pymatgen
data_Dy2S2O
_symmetry_space_group_name_H-M   'P 1'
_cell_length_a   3.79816778
_cell_length_b   6.72523485
_cell_length_c   15.52458983
_cell_angle_alpha   90.00000000
_cell_angle_beta   90.00000000
_cell_angle_gamma   90.00000000
_symmetry_Int_Tables_number   1
_chemical_formula_structural   Dy2S2O
_chemical_formula_sum   'Dy8 S8 O4'
_cell_volume   396.55345201
_cell_formula_units_Z   4
loop_
 _symmetry_equiv_pos_site_id
 _symmetry_equiv_pos_as_xyz
  1  'x, y, z'
loop_
 _atom_site_type_symbol
 _atom_site_label
 _atom_site_symmetry_multiplicity
 _atom_site_fract_x
 _atom_site_fract_y
 _atom_site_fract_z
 _atom_site_occupancy
  Dy  Dy0  1  0.25000000  0.24421332  0.83533995  1
  Dy  Dy1  1  0.75000000  0.75578668  0.16466005  1
  Dy  Dy2  1  0.75000000  0.74421332  0.66466005  1
  Dy  Dy3  1  0.25000000  0.25578668  0.33533995  1
  Dy  Dy4  1  0.25000000  0.79457065  0.95954939  1
  Dy  Dy5  1  0.75000000  0.20542935  0.04045061  1
  Dy  Dy6  1  0.75000000  0.29457065  0.54045061  1
  Dy  Dy7  1  0.25000000  0.70542935  0.45954939  1
  S  S8  1  0.25000000  0.04553080  0.18139320  1
  S  S9  1  0.25000000  0.98632668  0.59996385  1
  S  S10  1  0.75000000  0.48632668  0.90003615  1
  S  S11  1  0.25000000  0.51367332  0.09996385  1
  S  S12  1  0.75000000  0.95446920  0.81860680  1
  S  S13  1  0.75000000  0.54553080  0.31860680  1
  S  S14  1  0.25000000  0.45446920  0.68139320  1
  S  S15  1  0.75000000  0.01367332  0.40003615  1
  O  O16  1  0.75000000  0.86893604  0.03076059  1
  O  O17  1  0.75000000  0.63106396  0.53076059  1
  O  O18  1  0.25000000  0.36893604  0.46923941  1
  O  O19  1  0.25000000  0.13106396  0.96923941  1
