# generated using pymatgen
data_BaBSbS4
_symmetry_space_group_name_H-M   'P 1'
_cell_length_a   6.25226943
_cell_length_b   9.88537701
_cell_length_c   11.85354969
_cell_angle_alpha   90.00000000
_cell_angle_beta   90.00000000
_cell_angle_gamma   90.00000000
_symmetry_Int_Tables_number   1
_chemical_formula_structural   BaBSbS4
_chemical_formula_sum   'Ba4 B4 Sb4 S16'
_cell_volume   732.62097202
_cell_formula_units_Z   4
loop_
 _symmetry_equiv_pos_site_id
 _symmetry_equiv_pos_as_xyz
  1  'x, y, z'
loop_
 _atom_site_type_symbol
 _atom_site_label
 _atom_site_symmetry_multiplicity
 _atom_site_fract_x
 _atom_site_fract_y
 _atom_site_fract_z
 _atom_site_occupancy
  Ba  Ba0  1  0.25000000  0.48547540  0.67012623  1
  Ba  Ba1  1  0.75000000  0.01452460  0.17012623  1
  Ba  Ba2  1  0.25000000  0.98547540  0.82987377  1
  Ba  Ba3  1  0.75000000  0.51452460  0.32987377  1
  B  B4  1  0.25000000  0.19361243  0.45102089  1
  B  B5  1  0.75000000  0.30638757  0.95102089  1
  B  B6  1  0.25000000  0.69361243  0.04897911  1
  B  B7  1  0.75000000  0.80638757  0.54897911  1
  Sb  Sb8  1  0.25000000  0.80799878  0.46060041  1
  Sb  Sb9  1  0.75000000  0.69200122  0.96060041  1
  Sb  Sb10  1  0.25000000  0.30799878  0.03939959  1
  Sb  Sb11  1  0.75000000  0.19200122  0.53939959  1
  S  S12  1  0.25000000  0.17211749  0.60060971  1
  S  S13  1  0.75000000  0.32788251  0.10060971  1
  S  S14  1  0.25000000  0.67211749  0.89939029  1
  S  S15  1  0.75000000  0.82788251  0.39939029  1
  S  S16  1  0.25000000  0.57360339  0.41047925  1
  S  S17  1  0.75000000  0.92639661  0.91047925  1
  S  S18  1  0.25000000  0.07360339  0.08952075  1
  S  S19  1  0.75000000  0.42639661  0.58952075  1
  S  S20  1  0.99712428  0.79194810  0.62830453  1
  S  S21  1  0.00287572  0.70805190  0.12830453  1
  S  S22  1  0.50287572  0.29194810  0.87169547  1
  S  S23  1  0.49712428  0.20805190  0.37169547  1
  S  S24  1  0.00287572  0.20805190  0.37169547  1
  S  S25  1  0.99712428  0.29194810  0.87169547  1
  S  S26  1  0.49712428  0.70805190  0.12830453  1
  S  S27  1  0.50287572  0.79194810  0.62830453  1
