# generated using pymatgen
data_CuBiPtS3
_symmetry_space_group_name_H-M   'P 1'
_cell_length_a   4.94969567
_cell_length_b   7.73935662
_cell_length_c   12.62473278
_cell_angle_alpha   90.00000000
_cell_angle_beta   90.00000000
_cell_angle_gamma   90.00000000
_symmetry_Int_Tables_number   1
_chemical_formula_structural   CuBiPtS3
_chemical_formula_sum   'Cu4 Bi4 Pt4 S12'
_cell_volume   483.62144536
_cell_formula_units_Z   4
loop_
 _symmetry_equiv_pos_site_id
 _symmetry_equiv_pos_as_xyz
  1  'x, y, z'
loop_
 _atom_site_type_symbol
 _atom_site_label
 _atom_site_symmetry_multiplicity
 _atom_site_fract_x
 _atom_site_fract_y
 _atom_site_fract_z
 _atom_site_occupancy
  Cu  Cu0  1  0.47343180  0.88513835  0.44118998  1
  Cu  Cu1  1  0.97343180  0.61486165  0.55881002  1
  Cu  Cu2  1  0.52656820  0.38513835  0.05881002  1
  Cu  Cu3  1  0.02656820  0.11486165  0.94118998  1
  Bi  Bi4  1  0.40644774  0.88382069  0.13161662  1
  Bi  Bi5  1  0.90644774  0.61617931  0.86838338  1
  Bi  Bi6  1  0.59355226  0.38382069  0.36838338  1
  Bi  Bi7  1  0.09355226  0.11617931  0.63161662  1
  Pt  Pt8  1  0.00507113  0.63559857  0.24923462  1
  Pt  Pt9  1  0.50507113  0.86440143  0.75076538  1
  Pt  Pt10  1  0.99492887  0.13559857  0.25076538  1
  Pt  Pt11  1  0.49492887  0.36440143  0.74923462  1
  S  S12  1  0.76066212  0.63068589  0.08865097  1
  S  S13  1  0.26066212  0.86931411  0.91134903  1
  S  S14  1  0.23933788  0.13068589  0.41134903  1
  S  S15  1  0.73933788  0.36931411  0.58865097  1
  S  S16  1  0.76074614  0.88398569  0.29700266  1
  S  S17  1  0.26074614  0.61601431  0.70299734  1
  S  S18  1  0.23925386  0.38398569  0.20299734  1
  S  S19  1  0.73925386  0.11601431  0.79700266  1
  S  S20  1  0.23413866  0.63866397  0.41236922  1
  S  S21  1  0.73413866  0.86133603  0.58763078  1
  S  S22  1  0.76586134  0.13866397  0.08763078  1
  S  S23  1  0.26586134  0.36133603  0.91236922  1
