# generated using pymatgen
data_Ge7H8N2O15
_symmetry_space_group_name_H-M   'P 1'
_cell_length_a   7.47349182
_cell_length_b   7.47349182
_cell_length_c   15.19116779
_cell_angle_alpha   78.39148509
_cell_angle_beta   78.39148509
_cell_angle_gamma   58.25541537
_symmetry_Int_Tables_number   1
_chemical_formula_structural   Ge7H8N2O15
_chemical_formula_sum   'Ge14 H16 N4 O30'
_cell_volume   702.13883829
_cell_formula_units_Z   2
loop_
 _symmetry_equiv_pos_site_id
 _symmetry_equiv_pos_as_xyz
  1  'x, y, z'
loop_
 _atom_site_type_symbol
 _atom_site_label
 _atom_site_symmetry_multiplicity
 _atom_site_fract_x
 _atom_site_fract_y
 _atom_site_fract_z
 _atom_site_occupancy
  Ge  Ge0  1  0.55974826  0.35030805  0.35301584  1
  Ge  Ge1  1  0.35030805  0.55974826  0.85301584  1
  Ge  Ge2  1  0.36651563  0.26642990  0.12316185  1
  Ge  Ge3  1  0.21598409  0.26259331  0.33616946  1
  Ge  Ge4  1  0.73740669  0.78401591  0.16383054  1
  Ge  Ge5  1  0.73357010  0.63348437  0.37683815  1
  Ge  Ge6  1  0.00000000  0.50000000  -0.00000000  1
  Ge  Ge7  1  0.26642990  0.36651563  0.62316185  1
  Ge  Ge8  1  0.26259331  0.21598409  0.83616946  1
  Ge  Ge9  1  0.78401591  0.73740669  0.66383054  1
  Ge  Ge10  1  0.63348437  0.73357010  0.87683815  1
  Ge  Ge11  1  0.50000000  0.00000000  0.50000000  1
  Ge  Ge12  1  0.64969195  0.44025174  0.14698416  1
  Ge  Ge13  1  0.44025174  0.64969195  0.64698416  1
  H  H14  1  0.92653353  0.94865570  0.41941271  1
  H  H15  1  0.13351759  0.71661444  0.38385130  1
  H  H16  1  0.07614293  0.75032216  0.49275975  1
  H  H17  1  0.12422254  0.81133940  0.07889932  1
  H  H18  1  0.94865570  0.92653353  0.91941271  1
  H  H19  1  0.71661444  0.13351759  0.88385130  1
  H  H20  1  0.75032216  0.07614293  0.99275975  1
  H  H21  1  0.81133940  0.12422254  0.57889932  1
  H  H22  1  0.18866060  0.87577746  0.42110068  1
  H  H23  1  0.24967784  0.92385707  0.00724025  1
  H  H24  1  0.28338556  0.86648241  0.11614870  1
  H  H25  1  0.05134430  0.07346647  0.08058729  1
  H  H26  1  0.87577746  0.18866060  0.92110068  1
  H  H27  1  0.92385707  0.24967784  0.50724025  1
  H  H28  1  0.86648241  0.28338556  0.61614870  1
  H  H29  1  0.07346647  0.05134430  0.58058729  1
  N  N30  1  0.08120062  0.82586122  0.42834297  1
  N  N31  1  0.82586122  0.08120062  0.92834297  1
  N  N32  1  0.17413878  0.91879938  0.07165703  1
  N  N33  1  0.91879938  0.17413878  0.57165703  1
  O  O34  1  0.65714261  0.12930686  0.43143752  1
  O  O35  1  0.41796777  0.47284242  0.11714662  1
  O  O36  1  0.29520126  0.44928116  0.33238404  1
  O  O37  1  0.12930686  0.65714261  0.93143752  1
  O  O38  1  0.63404941  0.04880949  0.11548248  1
  O  O39  1  0.72668834  0.73654571  0.47011826  1
  O  O40  1  0.78627482  0.76582744  0.27473356  1
  O  O41  1  0.47284242  0.41796777  0.61714662  1
  O  O42  1  0.97544059  0.62999673  0.10081830  1
  O  O43  1  0.44928116  0.29520126  0.83238404  1
  O  O44  1  0.37000327  0.02455941  0.39918170  1
  O  O45  1  0.23417256  0.21372518  0.22526644  1
  O  O46  1  0.26345429  0.27331166  0.02988174  1
  O  O47  1  0.95119051  0.36595059  0.38451752  1
  O  O48  1  0.04880949  0.63404941  0.61548248  1
  O  O49  1  0.73654571  0.72668834  0.97011826  1
  O  O50  1  0.76582744  0.78627482  0.77473356  1
  O  O51  1  0.62999673  0.97544059  0.60081830  1
  O  O52  1  0.55071884  0.70479874  0.16761596  1
  O  O53  1  0.02455941  0.37000327  0.89918170  1
  O  O54  1  0.52715758  0.58203223  0.38285338  1
  O  O55  1  0.21372518  0.23417256  0.72526644  1
  O  O56  1  0.27331166  0.26345429  0.52988174  1
  O  O57  1  0.36595059  0.95119051  0.88451752  1
  O  O58  1  0.87069314  0.34285739  0.06856248  1
  O  O59  1  0.72212684  0.27787316  0.25000000  1
  O  O60  1  0.70479874  0.55071884  0.66761596  1
  O  O61  1  0.58203223  0.52715758  0.88285338  1
  O  O62  1  0.34285739  0.87069314  0.56856248  1
  O  O63  1  0.27787316  0.72212684  0.75000000  1
