# generated using pymatgen
data_K3P2AuSe8
_symmetry_space_group_name_H-M   'P 1'
_cell_length_a   7.24292185
_cell_length_b   7.24292185
_cell_length_c   18.82310373
_cell_angle_alpha   87.16634708
_cell_angle_beta   87.16634708
_cell_angle_gamma   120.72945155
_symmetry_Int_Tables_number   1
_chemical_formula_structural   K3P2AuSe8
_chemical_formula_sum   'K6 P4 Au2 Se16'
_cell_volume   844.55638449
_cell_formula_units_Z   2
loop_
 _symmetry_equiv_pos_site_id
 _symmetry_equiv_pos_as_xyz
  1  'x, y, z'
loop_
 _atom_site_type_symbol
 _atom_site_label
 _atom_site_symmetry_multiplicity
 _atom_site_fract_x
 _atom_site_fract_y
 _atom_site_fract_z
 _atom_site_occupancy
  K  K0  1  0.49557463  0.36065374  0.10601175  1
  K  K1  1  0.36065374  0.49557463  0.60601175  1
  K  K2  1  0.89286001  0.68449830  0.75413493  1
  K  K3  1  0.68449830  0.89286001  0.25413493  1
  K  K4  1  0.58026612  0.02950866  0.89751903  1
  K  K5  1  0.02950866  0.58026612  0.39751903  1
  P  P6  1  0.30492683  0.42897229  0.87776910  1
  P  P7  1  0.42897229  0.30492683  0.37776910  1
  P  P8  1  0.21670613  0.68297893  0.12364218  1
  P  P9  1  0.68297893  0.21670613  0.62364218  1
  Au  Au10  1  0.05044775  0.95182471  0.99928502  1
  Au  Au11  1  0.95182471  0.05044775  0.49928502  1
  Se  Se12  1  0.49820633  0.17772354  0.72248702  1
  Se  Se13  1  0.17772354  0.49820633  0.22248702  1
  Se  Se14  1  0.08293913  0.07148457  0.87438147  1
  Se  Se15  1  0.07148457  0.08293913  0.37438147  1
  Se  Se16  1  0.34028230  0.62094904  0.78104861  1
  Se  Se17  1  0.62094904  0.34028230  0.28104861  1
  Se  Se18  1  0.60145885  0.50915658  0.92317098  1
  Se  Se19  1  0.50915658  0.60145885  0.42317098  1
  Se  Se20  1  0.10466362  0.54202107  0.93963144  1
  Se  Se21  1  0.54202107  0.10466362  0.43963144  1
  Se  Se22  1  0.05219940  0.38976208  0.05779404  1
  Se  Se23  1  0.38976208  0.05219940  0.55779404  1
  Se  Se24  1  0.54357185  0.91442769  0.08274179  1
  Se  Se25  1  0.91442769  0.54357185  0.58274179  1
  Se  Se26  1  0.00349411  0.82522574  0.12408263  1
  Se  Se27  1  0.82522574  0.00349411  0.62408263  1
