# generated using pymatgen
data_K2VAgS4
_symmetry_space_group_name_H-M   'P 1'
_cell_length_a   12.93474725
_cell_length_b   11.54848245
_cell_length_c   7.12244476
_cell_angle_alpha   84.14239978
_cell_angle_beta   62.64349756
_cell_angle_gamma   33.21410266
_symmetry_Int_Tables_number   1
_chemical_formula_structural   K2VAgS4
_chemical_formula_sum   'K4 V2 Ag2 S8'
_cell_volume   421.48640102
_cell_formula_units_Z   2
loop_
 _symmetry_equiv_pos_site_id
 _symmetry_equiv_pos_as_xyz
  1  'x, y, z'
loop_
 _atom_site_type_symbol
 _atom_site_label
 _atom_site_symmetry_multiplicity
 _atom_site_fract_x
 _atom_site_fract_y
 _atom_site_fract_z
 _atom_site_occupancy
  K  K0  1  0.06947718  0.06947718  0.43052282  1
  K  K1  1  0.18052282  0.18052282  0.81947718  1
  K  K2  1  0.43052282  0.43052282  0.06947718  1
  K  K3  1  0.81947718  0.81947718  0.18052282  1
  V  V4  1  0.00000000  -0.00000000  0.00000000  1
  V  V5  1  0.25000000  0.25000000  0.25000000  1
  Ag  Ag6  1  0.50000000  0.50000000  0.50000000  1
  Ag  Ag7  1  0.75000000  0.75000000  0.75000000  1
  S  S8  1  0.75321261  0.36096003  0.04613606  1
  S  S9  1  0.04613606  0.83969030  0.75321261  1
  S  S10  1  0.83969030  0.04613606  0.36096003  1
  S  S11  1  0.36096003  0.75321261  0.83969030  1
  S  S12  1  0.49678739  0.88903997  0.20386394  1
  S  S13  1  0.41030970  0.20386394  0.88903997  1
  S  S14  1  0.20386394  0.41030970  0.49678739  1
  S  S15  1  0.88903997  0.49678739  0.41030970  1
