# generated using pymatgen
data_Ba4Sb2O9
_symmetry_space_group_name_H-M   'P 1'
_cell_length_a   6.04479312
_cell_length_b   6.04479331
_cell_length_c   16.92491632
_cell_angle_alpha   90.00000246
_cell_angle_beta   89.99999695
_cell_angle_gamma   119.99995202
_symmetry_Int_Tables_number   1
_chemical_formula_structural   Ba4Sb2O9
_chemical_formula_sum   'Ba8 Sb4 O18'
_cell_volume   535.57496671
_cell_formula_units_Z   2
loop_
 _symmetry_equiv_pos_site_id
 _symmetry_equiv_pos_as_xyz
  1  'x, y, z'
loop_
 _atom_site_type_symbol
 _atom_site_label
 _atom_site_symmetry_multiplicity
 _atom_site_fract_x
 _atom_site_fract_y
 _atom_site_fract_z
 _atom_site_occupancy
  Ba  Ba0  1  0.66666688  0.33333333  0.87142913  1
  Ba  Ba1  1  0.33333308  0.66666672  0.12857444  1
  Ba  Ba2  1  0.33333318  0.66666669  0.37142475  1
  Ba  Ba3  1  0.66666677  0.33333330  0.62857084  1
  Ba  Ba4  1  0.00000019  -0.00000001  0.49999809  1
  Ba  Ba5  1  0.00000015  -0.00000005  0.00000173  1
  Ba  Ba6  1  0.00000010  -0.00000002  0.74999995  1
  Ba  Ba7  1  -0.00000006  0.00000012  0.24999997  1
  Sb  Sb8  1  0.33333315  0.66666692  0.66368419  1
  Sb  Sb9  1  0.66666674  0.33333309  0.33631390  1
  Sb  Sb10  1  0.66666685  0.33333309  0.16368496  1
  Sb  Sb11  1  0.33333321  0.66666699  0.83631647  1
  O  O12  1  0.17161971  0.34323919  0.88928039  1
  O  O13  1  0.82838193  0.65676321  0.11072267  1
  O  O14  1  0.65676085  0.82838032  0.88928042  1
  O  O15  1  0.34323675  0.17161811  0.11072267  1
  O  O16  1  0.17161949  0.82838055  0.88928037  1
  O  O17  1  0.82838203  0.17161799  0.11072276  1
  O  O18  1  0.82838124  0.65676315  0.38927665  1
  O  O19  1  0.17161959  0.34323897  0.61071972  1
  O  O20  1  0.34323663  0.17161794  0.38927664  1
  O  O21  1  0.65676107  0.82838041  0.61071972  1
  O  O22  1  0.82838207  0.17161816  0.38927654  1
  O  O23  1  0.17161938  0.82838063  0.61071974  1
  O  O24  1  0.52079725  0.04159430  0.24999965  1
  O  O25  1  0.47920197  0.95840432  0.75000011  1
  O  O26  1  0.95840562  0.47920270  0.24999968  1
  O  O27  1  0.04159574  0.52079799  0.75000010  1
  O  O28  1  0.52079741  0.47920245  0.24999964  1
  O  O29  1  0.47920201  0.52079843  0.75000010  1
