# generated using pymatgen
data_CoPO4
_symmetry_space_group_name_H-M   'P 1'
_cell_length_a   4.96680636
_cell_length_b   4.96680636
_cell_length_c   8.75827633
_cell_angle_alpha   74.49771138
_cell_angle_beta   74.49771138
_cell_angle_gamma   63.38629024
_symmetry_Int_Tables_number   1
_chemical_formula_structural   CoPO4
_chemical_formula_sum   'Co2 P2 O8'
_cell_volume   183.38972834
_cell_formula_units_Z   2
loop_
 _symmetry_equiv_pos_site_id
 _symmetry_equiv_pos_as_xyz
  1  'x, y, z'
loop_
 _atom_site_type_symbol
 _atom_site_label
 _atom_site_symmetry_multiplicity
 _atom_site_fract_x
 _atom_site_fract_y
 _atom_site_fract_z
 _atom_site_occupancy
  Co  Co0  1  0.71371016  0.29357295  0.74384903  1
  Co  Co1  1  0.29357295  0.71371016  0.24384903  1
  P  P2  1  0.92488475  0.32388282  0.37492156  1
  P  P3  1  0.32388282  0.92488475  0.87492156  1
  O  O4  1  0.68015937  0.43816312  0.26950109  1
  O  O5  1  0.80446876  0.19131211  0.54464809  1
  O  O6  1  0.07898227  0.21509925  0.79894917  1
  O  O7  1  0.58052008  0.00676536  0.88616807  1
  O  O8  1  0.21509925  0.07898227  0.29894917  1
  O  O9  1  0.43816312  0.68015937  0.76950109  1
  O  O10  1  0.00676536  0.58052008  0.38616807  1
  O  O11  1  0.19131211  0.80446876  0.04464809  1
