# generated using pymatgen
data_Li2FeF4
_symmetry_space_group_name_H-M   'P 1'
_cell_length_a   5.88170838
_cell_length_b   5.88170838
_cell_length_c   8.17951558
_cell_angle_alpha   90.00000000
_cell_angle_beta   90.00000000
_cell_angle_gamma   90.00000000
_symmetry_Int_Tables_number   1
_chemical_formula_structural   Li2FeF4
_chemical_formula_sum   'Li8 Fe4 F16'
_cell_volume   282.96619830
_cell_formula_units_Z   4
loop_
 _symmetry_equiv_pos_site_id
 _symmetry_equiv_pos_as_xyz
  1  'x, y, z'
loop_
 _atom_site_type_symbol
 _atom_site_label
 _atom_site_symmetry_multiplicity
 _atom_site_fract_x
 _atom_site_fract_y
 _atom_site_fract_z
 _atom_site_occupancy
  Li  Li0  1  0.27404990  0.27404990  0.37500000  1
  Li  Li1  1  0.27404990  0.72595010  0.12500000  1
  Li  Li2  1  0.25559645  0.50000000  0.75000000  1
  Li  Li3  1  0.50000000  0.25559645  -0.00000000  1
  Li  Li4  1  0.50000000  0.74440355  0.50000000  1
  Li  Li5  1  0.74440355  0.50000000  0.25000000  1
  Li  Li6  1  0.72595010  0.27404990  0.62500000  1
  Li  Li7  1  0.72595010  0.72595010  0.87500000  1
  Fe  Fe8  1  -0.00000000  0.23019716  -0.00000000  1
  Fe  Fe9  1  -0.00000000  0.76980284  0.50000000  1
  Fe  Fe10  1  0.23019716  0.00000000  0.75000000  1
  Fe  Fe11  1  0.76980284  0.00000000  0.25000000  1
  F  F12  1  0.99920593  0.25827657  0.74190282  1
  F  F13  1  0.99920593  0.74172343  0.75809718  1
  F  F14  1  0.25827657  0.99920593  0.00809718  1
  F  F15  1  0.25827657  0.00079407  0.49190282  1
  F  F16  1  0.24908377  0.46813956  0.99346163  1
  F  F17  1  0.24908377  0.53186044  0.50653837  1
  F  F18  1  0.46813956  0.24908377  0.75653837  1
  F  F19  1  0.46813956  0.75091623  0.74346163  1
  F  F20  1  0.53186044  0.24908377  0.24346163  1
  F  F21  1  0.53186044  0.75091623  0.25653837  1
  F  F22  1  0.75091623  0.53186044  0.49346163  1
  F  F23  1  0.75091623  0.46813956  0.00653837  1
  F  F24  1  0.74172343  0.00079407  0.50809718  1
  F  F25  1  0.74172343  0.99920593  0.99190282  1
  F  F26  1  0.00079407  0.25827657  0.25809718  1
  F  F27  1  0.00079407  0.74172343  0.24190282  1
