# generated using pymatgen
data_K3NdSi2O7
_symmetry_space_group_name_H-M   'P 1'
_cell_length_a   10.07011730
_cell_length_b   10.07011730
_cell_length_c   14.59791178
_cell_angle_alpha   90.00000000
_cell_angle_beta   90.00000000
_cell_angle_gamma   120.00000132
_symmetry_Int_Tables_number   1
_chemical_formula_structural   K3NdSi2O7
_chemical_formula_sum   'K18 Nd6 Si12 O42'
_cell_volume   1282.00706791
_cell_formula_units_Z   6
loop_
 _symmetry_equiv_pos_site_id
 _symmetry_equiv_pos_as_xyz
  1  'x, y, z'
loop_
 _atom_site_type_symbol
 _atom_site_label
 _atom_site_symmetry_multiplicity
 _atom_site_fract_x
 _atom_site_fract_y
 _atom_site_fract_z
 _atom_site_occupancy
  K  K0  1  0.33073672  0.00000000  0.41121739  1
  K  K1  1  0.00000000  0.33073672  0.41121739  1
  K  K2  1  0.66926328  0.66926328  0.41121739  1
  K  K3  1  0.33073672  0.33073672  0.91121739  1
  K  K4  1  0.66926328  0.66926328  0.08878261  1
  K  K5  1  0.66926328  1.00000000  0.91121739  1
  K  K6  1  1.00000000  0.66926328  0.91121739  1
  K  K7  1  1.00000000  0.66926328  0.58878261  1
  K  K8  1  0.66926328  1.00000000  0.58878261  1
  K  K9  1  0.33073672  0.00000000  0.08878261  1
  K  K10  1  0.00000000  0.33073672  0.08878261  1
  K  K11  1  0.33073672  0.33073672  0.58878261  1
  K  K12  1  0.00000000  0.00000000  0.50000000  1
  K  K13  1  0.00000000  0.00000000  -0.00000000  1
  K  K14  1  0.66666700  0.33333300  0.75000000  1
  K  K15  1  0.33333300  0.66666700  0.25000000  1
  K  K16  1  0.33333300  0.66666700  0.75000000  1
  K  K17  1  0.66666700  0.33333300  0.25000000  1
  Nd  Nd18  1  0.66666700  0.33333300  0.50000000  1
  Nd  Nd19  1  0.33333300  0.66666700  -0.00000000  1
  Nd  Nd20  1  0.33333300  0.66666700  0.50000000  1
  Nd  Nd21  1  0.66666700  0.33333300  -0.00000000  1
  Nd  Nd22  1  0.00000000  0.00000000  0.75000000  1
  Nd  Nd23  1  0.00000000  0.00000000  0.25000000  1
  Si  Si24  1  0.65989762  1.00000000  0.35619602  1
  Si  Si25  1  1.00000000  0.65989762  0.35619602  1
  Si  Si26  1  0.34010238  0.34010238  0.35619602  1
  Si  Si27  1  0.65989762  0.65989762  0.85619602  1
  Si  Si28  1  0.34010238  0.34010238  0.14380398  1
  Si  Si29  1  0.34010238  0.00000000  0.85619602  1
  Si  Si30  1  0.00000000  0.34010238  0.85619602  1
  Si  Si31  1  0.00000000  0.34010238  0.64380398  1
  Si  Si32  1  0.34010238  0.00000000  0.64380398  1
  Si  Si33  1  0.65989762  1.00000000  0.14380398  1
  Si  Si34  1  1.00000000  0.65989762  0.14380398  1
  Si  Si35  1  0.65989762  0.65989762  0.64380398  1
  O  O36  1  0.32131768  0.47407783  0.09456011  1
  O  O37  1  0.52592217  0.84724085  0.09456011  1
  O  O38  1  0.15275915  0.67868232  0.09456011  1
  O  O39  1  0.84724085  0.32131768  0.59456011  1
  O  O40  1  0.67868232  0.15275915  0.40543989  1
  O  O41  1  0.67868232  0.52592217  0.59456011  1
  O  O42  1  0.47407783  0.15275915  0.59456011  1
  O  O43  1  0.52592217  0.67868232  0.90543989  1
  O  O44  1  0.15275915  0.47407783  0.90543989  1
  O  O45  1  0.84724085  0.52592217  0.40543989  1
  O  O46  1  0.47407783  0.32131768  0.40543989  1
  O  O47  1  0.32131768  0.84724085  0.90543989  1
  O  O48  1  0.67868232  0.52592217  0.90543989  1
  O  O49  1  0.47407783  0.15275915  0.90543989  1
  O  O50  1  0.84724085  0.32131768  0.90543989  1
  O  O51  1  0.15275915  0.67868232  0.40543989  1
  O  O52  1  0.32131768  0.84724085  0.59456011  1
  O  O53  1  0.32131768  0.47407783  0.40543989  1
  O  O54  1  0.52592217  0.84724085  0.40543989  1
  O  O55  1  0.47407783  0.32131768  0.09456011  1
  O  O56  1  0.84724085  0.52592217  0.09456011  1
  O  O57  1  0.15275915  0.47407783  0.59456011  1
  O  O58  1  0.52592217  0.67868232  0.59456011  1
  O  O59  1  0.67868232  0.15275915  0.09456011  1
  O  O60  1  0.40067953  0.40067953  0.25000000  1
  O  O61  1  1.00000000  0.40067953  0.75000000  1
  O  O62  1  0.40067953  1.00000000  0.75000000  1
  O  O63  1  0.59932047  0.00000000  0.25000000  1
  O  O64  1  0.00000000  0.59932047  0.25000000  1
  O  O65  1  0.59932047  0.59932047  0.75000000  1
  O  O66  1  0.17897128  0.00000000  0.85548880  1
  O  O67  1  0.00000000  0.17897128  0.85548880  1
  O  O68  1  0.82102872  0.82102872  0.85548880  1
  O  O69  1  0.17897128  0.17897128  0.35548880  1
  O  O70  1  0.82102872  0.82102872  0.64451120  1
  O  O71  1  0.82102872  -0.00000000  0.35548880  1
  O  O72  1  0.17897128  0.17897128  0.14451120  1
  O  O73  1  0.00000000  0.17897128  0.64451120  1
  O  O74  1  0.17897128  0.00000000  0.64451120  1
  O  O75  1  0.82102872  -0.00000000  0.14451120  1
  O  O76  1  -0.00000000  0.82102872  0.14451120  1
  O  O77  1  -0.00000000  0.82102872  0.35548880  1
