# generated using pymatgen
data_Hg3(AsO4)2
_symmetry_space_group_name_H-M   'P 1'
_cell_length_a   11.83894760
_cell_length_b   6.57509955
_cell_length_c   10.08902679
_cell_angle_alpha   80.09953930
_cell_angle_beta   90.00000000
_cell_angle_gamma   90.00000000
_symmetry_Int_Tables_number   1
_chemical_formula_structural   Hg3(AsO4)2
_chemical_formula_sum   'Hg12 As8 O32'
_cell_volume   773.65712093
_cell_formula_units_Z   4
loop_
 _symmetry_equiv_pos_site_id
 _symmetry_equiv_pos_as_xyz
  1  'x, y, z'
loop_
 _atom_site_type_symbol
 _atom_site_label
 _atom_site_symmetry_multiplicity
 _atom_site_fract_x
 _atom_site_fract_y
 _atom_site_fract_z
 _atom_site_occupancy
  Hg  Hg0  1  0.16620438  0.09015489  0.66043092  1
  Hg  Hg1  1  0.66620438  0.40984511  0.33956908  1
  Hg  Hg2  1  0.83379562  0.90984511  0.33956908  1
  Hg  Hg3  1  0.33379562  0.59015489  0.66043092  1
  Hg  Hg4  1  0.89022088  0.68044568  0.70303186  1
  Hg  Hg5  1  0.39022088  0.81955432  0.29696814  1
  Hg  Hg6  1  0.10977912  0.31955432  0.29696814  1
  Hg  Hg7  1  0.60977912  0.18044568  0.70303186  1
  Hg  Hg8  1  0.12051995  0.83282012  0.04562280  1
  Hg  Hg9  1  0.62051995  0.66717988  0.95437720  1
  Hg  Hg10  1  0.87948005  0.16717988  0.95437720  1
  Hg  Hg11  1  0.37948005  0.33282012  0.04562280  1
  As  As12  1  0.36838379  0.90966667  0.90231611  1
  As  As13  1  0.86838379  0.59033333  0.09768389  1
  As  As14  1  0.63161621  0.09033333  0.09768389  1
  As  As15  1  0.13161621  0.40966667  0.90231611  1
  As  As16  1  0.90182576  0.20442359  0.60530940  1
  As  As17  1  0.40182576  0.29557641  0.39469060  1
  As  As18  1  0.09817424  0.79557641  0.39469060  1
  As  As19  1  0.59817424  0.70442359  0.60530940  1
  O  O20  1  0.44789438  0.12267371  0.86813172  1
  O  O21  1  0.94789438  0.37732629  0.13186828  1
  O  O22  1  0.55210562  0.87732629  0.13186828  1
  O  O23  1  0.05210562  0.62267371  0.86813172  1
  O  O24  1  0.44251087  0.68341278  0.91343691  1
  O  O25  1  0.94251087  0.81658722  0.08656309  1
  O  O26  1  0.55748913  0.31658722  0.08656309  1
  O  O27  1  0.05748913  0.18341278  0.91343691  1
  O  O28  1  0.27101944  0.87262290  0.78303168  1
  O  O29  1  0.77101944  0.62737710  0.21696832  1
  O  O30  1  0.72898056  0.12737710  0.21696832  1
  O  O31  1  0.22898056  0.37262290  0.78303168  1
  O  O32  1  0.29369581  0.91966415  0.04772461  1
  O  O33  1  0.79369581  0.58033585  0.95227539  1
  O  O34  1  0.70630419  0.08033585  0.95227539  1
  O  O35  1  0.20630419  0.41966415  0.04772461  1
  O  O36  1  0.81066745  0.18248986  0.48191719  1
  O  O37  1  0.31066745  0.31751014  0.51808281  1
  O  O38  1  0.18933255  0.81751014  0.51808281  1
  O  O39  1  0.68933255  0.68248986  0.48191719  1
  O  O40  1  0.46433999  0.76966888  0.54739142  1
  O  O41  1  0.96433999  0.73033112  0.45260858  1
  O  O42  1  0.53566001  0.23033112  0.45260858  1
  O  O43  1  0.03566001  0.26966888  0.54739142  1
  O  O44  1  0.58393425  0.48531620  0.72442662  1
  O  O45  1  0.08393425  0.01468380  0.27557338  1
  O  O46  1  0.41606575  0.51468380  0.27557338  1
  O  O47  1  0.91606575  0.98531620  0.72442662  1
  O  O48  1  0.64980952  0.87070275  0.70517191  1
  O  O49  1  0.14980952  0.62929725  0.29482809  1
  O  O50  1  0.35019048  0.12929725  0.29482809  1
  O  O51  1  0.85019048  0.37070275  0.70517191  1
