# generated using pymatgen
data_KBiO3
_symmetry_space_group_name_H-M   'P 1'
_cell_length_a   8.64011955
_cell_length_b   8.64011955
_cell_length_c   10.03376254
_cell_angle_alpha   55.82079292
_cell_angle_beta   55.82079292
_cell_angle_gamma   71.90437720
_symmetry_Int_Tables_number   1
_chemical_formula_structural   KBiO3
_chemical_formula_sum   'K6 Bi6 O18'
_cell_volume   512.62705808
_cell_formula_units_Z   6
loop_
 _symmetry_equiv_pos_site_id
 _symmetry_equiv_pos_as_xyz
  1  'x, y, z'
loop_
 _atom_site_type_symbol
 _atom_site_label
 _atom_site_symmetry_multiplicity
 _atom_site_fract_x
 _atom_site_fract_y
 _atom_site_fract_z
 _atom_site_occupancy
  K  K0  1  0.50000000  0.00000000  0.00000000  1
  K  K1  1  0.68280305  0.01361866  0.30727019  1
  K  K2  1  0.01361866  0.68280305  0.30727019  1
  K  K3  1  -0.00000000  0.50000000  0.00000000  1
  K  K4  1  0.31719695  0.98638134  0.69272981  1
  K  K5  1  0.98638134  0.31719695  0.69272981  1
  Bi  Bi6  1  0.34086731  0.65913269  0.50000000  1
  Bi  Bi7  1  0.50102829  0.50102829  0.15915929  1
  Bi  Bi8  1  0.84070506  0.84070506  0.66101628  1
  Bi  Bi9  1  0.15929494  0.15929494  0.33898372  1
  Bi  Bi10  1  0.65913269  0.34086731  0.50000000  1
  Bi  Bi11  1  0.49897171  0.49897171  0.84084071  1
  O  O12  1  0.37528792  0.95178609  0.34207936  1
  O  O13  1  0.00526895  0.00526895  0.63595965  1
  O  O14  1  0.99473105  0.99473105  0.36404035  1
  O  O15  1  0.36018144  0.63981856  0.00000000  1
  O  O16  1  0.63981856  0.36018144  0.00000000  1
  O  O17  1  0.33672540  0.66488012  0.28645130  1
  O  O18  1  0.66488012  0.33672540  0.28645130  1
  O  O19  1  0.04821391  0.62471208  0.65792064  1
  O  O20  1  0.28580103  0.28580103  0.04990321  1
  O  O21  1  0.28884298  0.28884298  0.37793202  1
  O  O22  1  0.71115702  0.71115702  0.62206798  1
  O  O23  1  0.71419897  0.71419897  0.95009679  1
  O  O24  1  0.95178609  0.37528792  0.34207936  1
  O  O25  1  0.64006052  0.64006052  0.36795434  1
  O  O26  1  0.66327460  0.33511988  0.71354870  1
  O  O27  1  0.33511988  0.66327460  0.71354870  1
  O  O28  1  0.35993948  0.35993948  0.63204566  1
  O  O29  1  0.62471208  0.04821391  0.65792064  1
