# generated using pymatgen
data_Mn7F16
_symmetry_space_group_name_H-M   'P 1'
_cell_length_a   6.42081010
_cell_length_b   9.40986559
_cell_length_c   6.42316569
_cell_angle_alpha   70.00609822
_cell_angle_beta   60.01908561
_cell_angle_gamma   70.04113748
_symmetry_Int_Tables_number   1
_chemical_formula_structural   Mn7F16
_chemical_formula_sum   'Mn7 F16'
_cell_volume   308.88611518
_cell_formula_units_Z   1
loop_
 _symmetry_equiv_pos_site_id
 _symmetry_equiv_pos_as_xyz
  1  'x, y, z'
loop_
 _atom_site_type_symbol
 _atom_site_label
 _atom_site_symmetry_multiplicity
 _atom_site_fract_x
 _atom_site_fract_y
 _atom_site_fract_z
 _atom_site_occupancy
  Mn  Mn0  1  0.88958625  0.33808272  0.52069164  1
  Mn  Mn1  1  0.47905651  0.66230632  0.74741866  1
  Mn  Mn2  1  0.74713119  0.66224181  0.11017521  1
  Mn  Mn3  1  0.25287167  0.33776059  0.88982230  1
  Mn  Mn4  1  0.52094132  0.33770192  0.25258115  1
  Mn  Mn5  1  0.11041619  0.66192125  0.47930135  1
  Mn  Mn6  1  0.00001488  -0.00002947  0.00002079  1
  F  F7  1  0.76255836  0.71185141  0.76227646  1
  F  F8  1  0.98377765  0.12118428  0.71702873  1
  F  F9  1  0.85436204  0.58796717  0.40208634  1
  F  F10  1  0.59759517  0.41213123  0.84497083  1
  F  F11  1  0.82208764  0.87870864  0.01638968  1
  F  F12  1  0.28275862  0.87872737  0.82246205  1
  F  F13  1  0.84494102  0.41206066  0.14561745  1
  F  F14  1  0.42483597  0.72473474  0.42479531  1
  F  F15  1  0.57517086  0.27526102  0.57520360  1
  F  F16  1  0.15506417  0.58793469  0.85438209  1
  F  F17  1  0.71719367  0.12129336  0.17756670  1
  F  F18  1  0.17790988  0.12129783  0.98360981  1
  F  F19  1  0.40241210  0.58786232  0.15502965  1
  F  F20  1  0.14564909  0.41202217  0.59791232  1
  F  F21  1  0.01621737  0.87883449  0.28293290  1
  F  F22  1  0.23744739  0.28814345  0.23772499  1
