# generated using pymatgen
data_K2SiP2
_symmetry_space_group_name_H-M   'P 1'
_cell_length_a   6.09468585
_cell_length_b   6.87020751
_cell_length_c   7.95282321
_cell_angle_alpha   115.59043838
_cell_angle_beta   112.53064402
_cell_angle_gamma   90.00000331
_symmetry_Int_Tables_number   1
_chemical_formula_structural   K2SiP2
_chemical_formula_sum   'K4 Si2 P4'
_cell_volume   271.88009871
_cell_formula_units_Z   2
loop_
 _symmetry_equiv_pos_site_id
 _symmetry_equiv_pos_as_xyz
  1  'x, y, z'
loop_
 _atom_site_type_symbol
 _atom_site_label
 _atom_site_symmetry_multiplicity
 _atom_site_fract_x
 _atom_site_fract_y
 _atom_site_fract_z
 _atom_site_occupancy
  K  K0  1  0.14598025  0.98446355  0.29195949  1
  K  K1  1  0.85401975  0.01553645  0.70804051  1
  K  K2  1  0.35401975  0.69250506  0.70804051  1
  K  K3  1  0.64598025  0.30749494  0.29195949  1
  Si  Si4  1  0.75000000  0.50000000  0.00000000  1
  Si  Si5  1  0.25000000  0.50000000  0.00000000  1
  P  P6  1  0.59608990  0.76013432  0.19217881  1
  P  P7  1  0.90391010  0.56795552  0.80782119  1
  P  P8  1  0.09608990  0.43204448  0.19217881  1
  P  P9  1  0.40391010  0.23986568  0.80782119  1
