# generated using pymatgen
data_KSiBiS4
_symmetry_space_group_name_H-M   'P 1'
_cell_length_a   6.76564956
_cell_length_b   6.52519190
_cell_length_c   17.26641365
_cell_angle_alpha   72.63386457
_cell_angle_beta   90.00000000
_cell_angle_gamma   90.00000000
_symmetry_Int_Tables_number   1
_chemical_formula_structural   KSiBiS4
_chemical_formula_sum   'K4 Si4 Bi4 S16'
_cell_volume   727.51684532
_cell_formula_units_Z   4
loop_
 _symmetry_equiv_pos_site_id
 _symmetry_equiv_pos_as_xyz
  1  'x, y, z'
loop_
 _atom_site_type_symbol
 _atom_site_label
 _atom_site_symmetry_multiplicity
 _atom_site_fract_x
 _atom_site_fract_y
 _atom_site_fract_z
 _atom_site_occupancy
  K  K0  1  0.25004034  0.27701116  0.96537572  1
  K  K1  1  0.75004034  0.72298884  0.53462428  1
  K  K2  1  0.74995966  0.72298884  0.03462428  1
  K  K3  1  0.24995966  0.27701116  0.46537572  1
  Si  Si4  1  0.73276739  0.20911441  0.84287210  1
  Si  Si5  1  0.23276739  0.79088559  0.65712790  1
  Si  Si6  1  0.26723261  0.79088559  0.15712790  1
  Si  Si7  1  0.76723261  0.20911441  0.34287210  1
  Bi  Bi8  1  0.80447966  0.76232001  0.77919719  1
  Bi  Bi9  1  0.30447966  0.23767999  0.72080281  1
  Bi  Bi10  1  0.19552034  0.23767999  0.22080281  1
  Bi  Bi11  1  0.69552034  0.76232001  0.27919719  1
  S  S12  1  0.49792453  0.98721072  0.86824833  1
  S  S13  1  -0.00207547  0.01278928  0.63175167  1
  S  S14  1  0.50207547  0.01278928  0.13175167  1
  S  S15  1  0.00207547  0.98721072  0.36824833  1
  S  S16  1  0.74942899  0.41397729  0.91706856  1
  S  S17  1  0.24942899  0.58602271  0.58293144  1
  S  S18  1  0.25057101  0.58602271  0.08293144  1
  S  S19  1  0.75057101  0.41397729  0.41706856  1
  S  S20  1  -0.00851326  0.01659244  0.85769425  1
  S  S21  1  0.49148674  0.98340756  0.64230575  1
  S  S22  1  0.00851326  0.98340756  0.14230575  1
  S  S23  1  0.50851326  0.01659244  0.35769425  1
  S  S24  1  0.68629321  0.40128307  0.71941995  1
  S  S25  1  0.18629321  0.59871693  0.78058005  1
  S  S26  1  0.31370679  0.59871693  0.28058005  1
  S  S27  1  0.81370679  0.40128307  0.21941995  1
