# generated using pymatgen
data_K2Sn2Se5
_symmetry_space_group_name_H-M   'P 1'
_cell_length_a   7.14338346
_cell_length_b   7.14338328
_cell_length_c   12.09595942
_cell_angle_alpha   75.06865752
_cell_angle_beta   75.06865434
_cell_angle_gamma   70.45398751
_symmetry_Int_Tables_number   1
_chemical_formula_structural   K2Sn2Se5
_chemical_formula_sum   'K4 Sn4 Se10'
_cell_volume   551.96919777
_cell_formula_units_Z   2
loop_
 _symmetry_equiv_pos_site_id
 _symmetry_equiv_pos_as_xyz
  1  'x, y, z'
loop_
 _atom_site_type_symbol
 _atom_site_label
 _atom_site_symmetry_multiplicity
 _atom_site_fract_x
 _atom_site_fract_y
 _atom_site_fract_z
 _atom_site_occupancy
  K  K0  1  0.56258820  0.89793844  0.68055552  1
  K  K1  1  0.10206156  0.43741180  0.81944448  1
  K  K2  1  0.43741180  0.10206156  0.31944448  1
  K  K3  1  0.89793844  0.56258820  0.18055552  1
  Sn  Sn4  1  0.75245665  0.05725740  0.94171681  1
  Sn  Sn5  1  0.05725740  0.75245665  0.44171681  1
  Sn  Sn6  1  0.24754335  0.94274260  0.05828319  1
  Sn  Sn7  1  0.94274260  0.24754335  0.55828319  1
  Se  Se8  1  0.32005385  0.67994615  0.25000000  1
  Se  Se9  1  0.67994615  0.32005385  0.75000000  1
  Se  Se10  1  0.74116606  0.64824789  0.46194876  1
  Se  Se11  1  0.88226944  0.15526179  0.38015570  1
  Se  Se12  1  0.35175211  0.25883394  0.03805124  1
  Se  Se13  1  0.25883394  0.35175211  0.53805124  1
  Se  Se14  1  0.64824789  0.74116606  0.96194876  1
  Se  Se15  1  0.11773056  0.84473821  0.61984430  1
  Se  Se16  1  0.15526179  0.88226944  0.88015570  1
  Se  Se17  1  0.84473821  0.11773056  0.11984430  1
