# generated using pymatgen
data_Li8Ni(O2F)2
_symmetry_space_group_name_H-M   'P 1'
_cell_length_a   5.43993172
_cell_length_b   5.18163322
_cell_length_c   10.51516735
_cell_angle_alpha   79.76806078
_cell_angle_beta   76.84242325
_cell_angle_gamma   63.99654066
_symmetry_Int_Tables_number   1
_chemical_formula_structural   Li8Ni(O2F)2
_chemical_formula_sum   'Li16 Ni2 O8 F4'
_cell_volume   258.37218864
_cell_formula_units_Z   2
loop_
 _symmetry_equiv_pos_site_id
 _symmetry_equiv_pos_as_xyz
  1  'x, y, z'
loop_
 _atom_site_type_symbol
 _atom_site_label
 _atom_site_symmetry_multiplicity
 _atom_site_fract_x
 _atom_site_fract_y
 _atom_site_fract_z
 _atom_site_occupancy
  Li  Li0  1  0.16104443  0.75035936  0.68171769  1
  Li  Li1  1  0.16825745  0.61803407  0.31774833  1
  Li  Li2  1  0.11634979  0.37036917  0.81174714  1
  Li  Li3  1  0.14169304  0.25330880  0.47146411  1
  Li  Li4  1  0.23894879  0.41358055  0.01444798  1
  Li  Li5  1  0.23598071  0.98191828  0.17376757  1
  Li  Li6  1  0.46984429  0.07425060  0.65443115  1
  Li  Li7  1  0.54843283  0.33497888  0.17278717  1
  Li  Li8  1  0.45156717  0.66502112  0.82721283  1
  Li  Li9  1  0.53015571  0.92574940  0.34556885  1
  Li  Li10  1  0.76401929  0.01808172  0.82623243  1
  Li  Li11  1  0.76105121  0.58641945  0.98555202  1
  Li  Li12  1  0.85830696  0.74669120  0.52853589  1
  Li  Li13  1  0.83174255  0.38196593  0.68225167  1
  Li  Li14  1  0.88365021  0.62963083  0.18825286  1
  Li  Li15  1  0.83895557  0.24964064  0.31828231  1
  Ni  Ni16  1  0.00000000  -0.00000000  -0.00000000  1
  Ni  Ni17  1  0.50000000  0.50000000  0.50000000  1
  O  O18  1  0.06868663  0.70692787  0.88331524  1
  O  O19  1  0.21807529  0.67414324  0.12309623  1
  O  O20  1  0.17785482  0.43090062  0.61313168  1
  O  O21  1  0.47608490  0.29732790  0.37063784  1
  O  O22  1  0.52391510  0.70267210  0.62936216  1
  O  O23  1  0.82214518  0.56909938  0.38686832  1
  O  O24  1  0.78192471  0.32585676  0.87690377  1
  O  O25  1  0.93131337  0.29307213  0.11668476  1
  F  F26  1  0.42614238  0.03320707  0.84439695  1
  F  F27  1  0.15424448  0.95790497  0.36339933  1
  F  F28  1  0.84575552  0.04209503  0.63660067  1
  F  F29  1  0.57385762  0.96679293  0.15560305  1
