# generated using pymatgen
data_Ca4PtO6
_symmetry_space_group_name_H-M   'P 1'
_cell_length_a   6.56732771
_cell_length_b   6.56732771
_cell_length_c   6.56732827
_cell_angle_alpha   90.67182087
_cell_angle_beta   90.67182087
_cell_angle_gamma   90.67181668
_symmetry_Int_Tables_number   1
_chemical_formula_structural   Ca4PtO6
_chemical_formula_sum   'Ca8 Pt2 O12'
_cell_volume   283.18863590
_cell_formula_units_Z   2
loop_
 _symmetry_equiv_pos_site_id
 _symmetry_equiv_pos_as_xyz
  1  'x, y, z'
loop_
 _atom_site_type_symbol
 _atom_site_label
 _atom_site_symmetry_multiplicity
 _atom_site_fract_x
 _atom_site_fract_y
 _atom_site_fract_z
 _atom_site_occupancy
  Ca  Ca0  1  0.75000000  0.11384721  0.38615279  1
  Ca  Ca1  1  0.38615279  0.75000000  0.11384721  1
  Ca  Ca2  1  0.11384721  0.38615279  0.75000000  1
  Ca  Ca3  1  0.25000000  0.88615279  0.61384721  1
  Ca  Ca4  1  0.61384721  0.25000000  0.88615279  1
  Ca  Ca5  1  0.88615279  0.61384721  0.25000000  1
  Ca  Ca6  1  0.25000000  0.25000000  0.25000000  1
  Ca  Ca7  1  0.75000000  0.75000000  0.75000000  1
  Pt  Pt8  1  0.50000000  0.50000000  0.50000000  1
  Pt  Pt9  1  0.00000000  0.00000000  0.00000000  1
  O  O10  1  0.42884663  0.20251464  0.55401254  1
  O  O11  1  0.55401254  0.42884663  0.20251464  1
  O  O12  1  0.20251464  0.55401254  0.42884663  1
  O  O13  1  0.07115337  0.94598746  0.29748536  1
  O  O14  1  0.29748536  0.07115337  0.94598746  1
  O  O15  1  0.94598746  0.29748536  0.07115337  1
  O  O16  1  0.57115337  0.79748536  0.44598746  1
  O  O17  1  0.44598746  0.57115337  0.79748536  1
  O  O18  1  0.79748536  0.44598746  0.57115337  1
  O  O19  1  0.92884663  0.05401254  0.70251464  1
  O  O20  1  0.05401254  0.70251464  0.92884663  1
  O  O21  1  0.70251464  0.92884663  0.05401254  1
