# generated using pymatgen
data_K3TaF8
_symmetry_space_group_name_H-M   'P 1'
_cell_length_a   8.21167670
_cell_length_b   8.21169379
_cell_length_c   6.21952323
_cell_angle_alpha   89.99974431
_cell_angle_beta   90.00032267
_cell_angle_gamma   120.00037749
_symmetry_Int_Tables_number   1
_chemical_formula_structural   K3TaF8
_chemical_formula_sum   'K6 Ta2 F16'
_cell_volume   363.20403342
_cell_formula_units_Z   2
loop_
 _symmetry_equiv_pos_site_id
 _symmetry_equiv_pos_as_xyz
  1  'x, y, z'
loop_
 _atom_site_type_symbol
 _atom_site_label
 _atom_site_symmetry_multiplicity
 _atom_site_fract_x
 _atom_site_fract_y
 _atom_site_fract_z
 _atom_site_occupancy
  K  K0  1  0.15427737  0.30855751  0.24521711  1
  K  K1  1  0.84572432  0.69144445  0.74521774  1
  K  K2  1  0.69144246  0.84572183  0.24521762  1
  K  K3  1  0.15427808  0.84572246  0.24521740  1
  K  K4  1  0.84572054  0.15427871  0.74521804  1
  K  K5  1  0.30855777  0.15427916  0.74521691  1
  Ta  Ta6  1  0.33334754  0.66666438  0.73958762  1
  Ta  Ta7  1  0.66665494  0.33333641  0.23958497  1
  F  F8  1  -0.00000059  0.00000055  0.00404391  1
  F  F9  1  -0.00000047  0.00000073  0.50404378  1
  F  F10  1  0.43855531  0.56144246  0.53177836  1
  F  F11  1  0.56144538  0.43855366  0.03178122  1
  F  F12  1  0.43855777  0.87711670  0.53177058  1
  F  F13  1  0.12287970  0.56144026  0.53176821  1
  F  F14  1  0.87711664  0.43855797  0.03177043  1
  F  F15  1  0.56144267  0.12288529  0.03177469  1
  F  F16  1  0.33333214  0.66666695  0.05636297  1
  F  F17  1  0.66666705  0.33333250  0.55637019  1
  F  F18  1  0.20021948  0.79978036  0.81806259  1
  F  F19  1  0.79978270  0.20021767  0.31806381  1
  F  F20  1  0.20022212  0.40044852  0.81805997  1
  F  F21  1  0.59954558  0.79977351  0.81805890  1
  F  F22  1  0.40045471  0.20022611  0.31805832  1
  F  F23  1  0.79977677  0.59955187  0.31806065  1
