# generated using pymatgen
data_K2CuF4
_symmetry_space_group_name_H-M   'P 1'
_cell_length_a   5.81125330
_cell_length_b   5.80740724
_cell_length_c   6.97972571
_cell_angle_alpha   90.00191476
_cell_angle_beta   114.56734077
_cell_angle_gamma   89.99555182
_symmetry_Int_Tables_number   1
_chemical_formula_structural   K2CuF4
_chemical_formula_sum   'K4 Cu2 F8'
_cell_volume   214.23004061
_cell_formula_units_Z   2
loop_
 _symmetry_equiv_pos_site_id
 _symmetry_equiv_pos_as_xyz
  1  'x, y, z'
loop_
 _atom_site_type_symbol
 _atom_site_label
 _atom_site_symmetry_multiplicity
 _atom_site_fract_x
 _atom_site_fract_y
 _atom_site_fract_z
 _atom_site_occupancy
  K  K0  1  0.64168113  0.00002846  0.28387798  1
  K  K1  1  0.85831416  0.50002728  0.71611340  1
  K  K2  1  0.14168584  0.49997272  0.28388660  1
  K  K3  1  0.35831887  0.99997154  0.71612202  1
  Cu  Cu4  1  0.00000000  -0.00000000  0.00000000  1
  Cu  Cu5  1  0.50000000  0.50000000  0.00000000  1
  F  F6  1  0.76811397  0.23183717  0.99997411  1
  F  F7  1  0.26800241  0.26805113  0.99996495  1
  F  F8  1  0.73199759  0.73194887  0.00003505  1
  F  F9  1  0.23188603  0.76816283  0.00002589  1
  F  F10  1  0.34664175  0.50010796  0.69323399  1
  F  F11  1  0.15330684  0.00011145  0.30667887  1
  F  F12  1  0.84669316  0.99988855  0.69332113  1
  F  F13  1  0.65335825  0.49989204  0.30676601  1
