# generated using pymatgen
data_NaGeSbO5
_symmetry_space_group_name_H-M   'P 1'
_cell_length_a   6.39826776
_cell_length_b   10.74442112
_cell_length_c   12.99689311
_cell_angle_alpha   90.00000000
_cell_angle_beta   90.00000000
_cell_angle_gamma   90.00000000
_symmetry_Int_Tables_number   1
_chemical_formula_structural   NaGeSbO5
_chemical_formula_sum   'Na8 Ge8 Sb8 O40'
_cell_volume   893.48029700
_cell_formula_units_Z   8
loop_
 _symmetry_equiv_pos_site_id
 _symmetry_equiv_pos_as_xyz
  1  'x, y, z'
loop_
 _atom_site_type_symbol
 _atom_site_label
 _atom_site_symmetry_multiplicity
 _atom_site_fract_x
 _atom_site_fract_y
 _atom_site_fract_z
 _atom_site_occupancy
  Na  Na0  1  0.80008206  0.73393560  0.34075018  1
  Na  Na1  1  0.27015906  0.41269723  0.89968060  1
  Na  Na2  1  0.22984094  0.41269723  0.39968060  1
  Na  Na3  1  0.72984094  0.91269723  0.10031940  1
  Na  Na4  1  0.30008206  0.23393560  0.15924882  1
  Na  Na5  1  0.69991794  0.73393560  0.84075118  1
  Na  Na6  1  0.19991794  0.23393560  0.65924882  1
  Na  Na7  1  0.77015906  0.91269723  0.60031940  1
  Ge  Ge8  1  0.68665824  0.24449685  0.51844760  1
  Ge  Ge9  1  0.18665824  0.74449685  0.98155240  1
  Ge  Ge10  1  0.81334176  0.24449685  0.01844760  1
  Ge  Ge11  1  0.54009771  0.51051995  0.18832274  1
  Ge  Ge12  1  0.45990229  0.01051995  0.81167726  1
  Ge  Ge13  1  0.95990229  0.51051995  0.68832274  1
  Ge  Ge14  1  0.31334176  0.74449685  0.48155240  1
  Ge  Ge15  1  0.04009771  0.01051995  0.31167726  1
  Sb  Sb16  1  0.27910291  0.77315305  0.22628208  1
  Sb  Sb17  1  0.72089709  0.27315305  0.77371792  1
  Sb  Sb18  1  0.22089709  0.77315305  0.72628208  1
  Sb  Sb19  1  0.53384281  0.99924577  0.38562922  1
  Sb  Sb20  1  0.46615719  0.49924577  0.61437078  1
  Sb  Sb21  1  0.96615719  0.99924577  0.88562922  1
  Sb  Sb22  1  0.03384281  0.49924577  0.11437078  1
  Sb  Sb23  1  0.77910291  0.27315305  0.27371792  1
  O  O24  1  0.94287471  0.15191735  0.80446580  1
  O  O25  1  0.05712529  0.65191735  0.19553420  1
  O  O26  1  0.55712529  0.15191735  0.30446580  1
  O  O27  1  0.44287471  0.65191735  0.69553420  1
  O  O28  1  0.49663640  0.89870175  0.25823236  1
  O  O29  1  0.50336360  0.39870175  0.74176764  1
  O  O30  1  0.00336360  0.89870175  0.75823236  1
  O  O31  1  0.99663640  0.39870175  0.24176764  1
  O  O32  1  0.49800286  0.15100126  0.74576470  1
  O  O33  1  0.50199714  0.65100226  0.25423530  1
  O  O34  1  0.00199714  0.15100126  0.24576470  1
  O  O35  1  0.99800286  0.65100226  0.75423530  1
  O  O36  1  0.06760121  0.90516065  0.20880755  1
  O  O37  1  0.93239879  0.40516065  0.79119245  1
  O  O38  1  0.43239879  0.90516065  0.70880755  1
  O  O39  1  0.13601192  0.78233755  0.58031287  1
  O  O40  1  0.56760121  0.40516065  0.29119245  1
  O  O41  1  0.73583051  0.52736608  0.09607256  1
  O  O42  1  0.23583051  0.02736608  0.40392844  1
  O  O43  1  0.76416949  0.52736608  0.59607156  1
  O  O44  1  0.83118683  0.95501443  0.38367497  1
  O  O45  1  0.16881317  0.45501443  0.61632503  1
  O  O46  1  0.66881317  0.95501443  0.88367497  1
  O  O47  1  0.33118683  0.45501443  0.11632503  1
  O  O48  1  0.53124307  0.84351258  0.47180238  1
  O  O49  1  0.46875693  0.34351258  0.52819762  1
  O  O50  1  0.96875693  0.84351258  0.97180238  1
  O  O51  1  0.03124307  0.34351258  0.02819762  1
  O  O52  1  0.90552224  0.09029255  0.01459995  1
  O  O53  1  0.09447776  0.59029255  0.98540005  1
  O  O54  1  0.59447776  0.09029255  0.51459995  1
  O  O55  1  0.40552224  0.59029255  0.48540005  1
  O  O56  1  0.16638661  0.75706735  0.36866981  1
  O  O57  1  0.83361339  0.25706735  0.63133019  1
  O  O58  1  0.33361339  0.75706735  0.86866981  1
  O  O59  1  0.66638661  0.25706735  0.13133019  1
  O  O60  1  0.63601192  0.28233755  0.91968713  1
  O  O61  1  0.36398808  0.78233755  0.08031287  1
  O  O62  1  0.86398808  0.28233755  0.41968713  1
  O  O63  1  0.26416949  0.02736608  0.90392844  1
