# generated using pymatgen
data_Nd3SiAgS7
_symmetry_space_group_name_H-M   'P 1'
_cell_length_a   10.32159789
_cell_length_b   10.32159789
_cell_length_c   5.75844931
_cell_angle_alpha   90.00000000
_cell_angle_beta   90.00000000
_cell_angle_gamma   120.00000142
_symmetry_Int_Tables_number   1
_chemical_formula_structural   Nd3SiAgS7
_chemical_formula_sum   'Nd6 Si2 Ag2 S14'
_cell_volume   531.28804717
_cell_formula_units_Z   2
loop_
 _symmetry_equiv_pos_site_id
 _symmetry_equiv_pos_as_xyz
  1  'x, y, z'
loop_
 _atom_site_type_symbol
 _atom_site_label
 _atom_site_symmetry_multiplicity
 _atom_site_fract_x
 _atom_site_fract_y
 _atom_site_fract_z
 _atom_site_occupancy
  Nd  Nd0  1  0.12264154  0.35966979  0.25027773  1
  Nd  Nd1  1  0.87735846  0.64033021  0.75027773  1
  Nd  Nd2  1  0.64033021  0.76297175  0.25027773  1
  Nd  Nd3  1  0.23702825  0.87735846  0.25027773  1
  Nd  Nd4  1  0.76297175  0.12264154  0.75027773  1
  Nd  Nd5  1  0.35966979  0.23702825  0.75027773  1
  Si  Si6  1  0.33333300  0.66666700  0.66067882  1
  Si  Si7  1  0.66666700  0.33333300  0.16067882  1
  Ag  Ag8  1  0.00000000  -0.00000000  0.29262638  1
  Ag  Ag9  1  0.00000000  -0.00000000  0.79262638  1
  S  S10  1  0.33333300  0.66666700  0.02542382  1
  S  S11  1  0.66666700  0.33333300  0.52542382  1
  S  S12  1  0.40862198  0.52476783  0.51666841  1
  S  S13  1  0.59137802  0.47523217  0.01666841  1
  S  S14  1  0.47523217  0.88385414  0.51666841  1
  S  S15  1  0.11614586  0.59137802  0.51666841  1
  S  S16  1  0.88385414  0.40862198  0.01666841  1
  S  S17  1  0.52476783  0.11614586  0.01666841  1
  S  S18  1  0.09010647  0.26717497  0.76560586  1
  S  S19  1  0.90989353  0.73282503  0.26560586  1
  S  S20  1  0.73282503  0.82293149  0.76560586  1
  S  S21  1  0.17706851  0.90989353  0.76560586  1
  S  S22  1  0.82293149  0.09010647  0.26560586  1
  S  S23  1  0.26717497  0.17706851  0.26560586  1
