# generated using pymatgen
data_MnInO3
_symmetry_space_group_name_H-M   'P 1'
_cell_length_a   5.90919313
_cell_length_b   11.53908783
_cell_length_c   5.90920271
_cell_angle_alpha   90.00024679
_cell_angle_beta   60.17520066
_cell_angle_gamma   89.99977843
_symmetry_Int_Tables_number   1
_chemical_formula_structural   MnInO3
_chemical_formula_sum   'Mn6 In6 O18'
_cell_volume   349.56118231
_cell_formula_units_Z   6
loop_
 _symmetry_equiv_pos_site_id
 _symmetry_equiv_pos_as_xyz
  1  'x, y, z'
loop_
 _atom_site_type_symbol
 _atom_site_label
 _atom_site_symmetry_multiplicity
 _atom_site_fract_x
 _atom_site_fract_y
 _atom_site_fract_z
 _atom_site_occupancy
  Mn  Mn0  1  0.99945881  0.50732145  0.33500007  1
  Mn  Mn1  1  0.66499895  0.50732053  0.00054101  1
  Mn  Mn2  1  0.66625082  0.00742787  0.33374953  1
  Mn  Mn3  1  0.33374469  0.50742058  0.66625633  1
  Mn  Mn4  1  0.00053830  0.00732781  0.66500539  1
  Mn  Mn5  1  0.33499548  0.00732792  0.99946162  1
  In  In6  1  0.99979517  0.23755595  0.00020702  1
  In  In7  1  0.00021898  0.73762033  0.99978004  1
  In  In8  1  0.66652800  0.26827432  0.66683979  1
  In  In9  1  0.33316063  0.26827406  0.33347045  1
  In  In10  1  0.33346881  0.76832467  0.33314891  1
  In  In11  1  0.66683873  0.76832594  0.66654310  1
  O  O12  1  0.00137319  0.52888442  0.99862760  1
  O  O13  1  0.99864392  0.02888853  0.00135588  1
  O  O14  1  0.66794934  0.49503459  0.66532134  1
  O  O15  1  0.33467924  0.49503543  0.33205151  1
  O  O16  1  0.33205842  0.99503708  0.33466640  1
  O  O17  1  0.66533368  0.99503600  0.66794093  1
  O  O18  1  0.31339404  0.34252535  0.68660592  1
  O  O19  1  0.99966307  0.34247662  0.31419492  1
  O  O20  1  0.68580480  0.34247688  0.00033933  1
  O  O21  1  0.68661044  0.84248700  0.31338738  1
  O  O22  1  0.00032932  0.84244166  0.68580903  1
  O  O23  1  0.31419217  0.84244094  0.99967173  1
  O  O24  1  0.64533975  0.17209314  0.35466129  1
  O  O25  1  0.00006899  0.17200842  0.64545439  1
  O  O26  1  0.35454610  0.17200842  -0.00006797  1
  O  O27  1  0.35465267  0.67205472  0.64534793  1
  O  O28  1  -0.00007741  0.67197285  0.35455362  1
  O  O29  1  0.64544588  0.67197354  0.00007450  1
