# generated using pymatgen
data_K2Mg(CO3)2
_symmetry_space_group_name_H-M   'P 1'
_cell_length_a   6.43225800
_cell_length_b   6.43225800
_cell_length_c   6.43225774
_cell_angle_alpha   47.29312894
_cell_angle_beta   47.29312894
_cell_angle_gamma   47.29312529
_symmetry_Int_Tables_number   1
_chemical_formula_structural   K2Mg(CO3)2
_chemical_formula_sum   'K2 Mg1 C2 O6'
_cell_volume   131.44533435
_cell_formula_units_Z   1
loop_
 _symmetry_equiv_pos_site_id
 _symmetry_equiv_pos_as_xyz
  1  'x, y, z'
loop_
 _atom_site_type_symbol
 _atom_site_label
 _atom_site_symmetry_multiplicity
 _atom_site_fract_x
 _atom_site_fract_y
 _atom_site_fract_z
 _atom_site_occupancy
  K  K0  1  0.78951765  0.78951765  0.78951765  1
  K  K1  1  0.21048235  0.21048235  0.21048235  1
  Mg  Mg2  1  -0.00000000  0.00000000  0.00000000  1
  C  C3  1  0.59593238  0.59593238  0.59593238  1
  C  C4  1  0.40406762  0.40406762  0.40406762  1
  O  O5  1  0.26070569  0.69457929  0.26070569  1
  O  O6  1  0.26070569  0.26070569  0.69457929  1
  O  O7  1  0.69457929  0.26070569  0.26070569  1
  O  O8  1  0.30542071  0.73929431  0.73929431  1
  O  O9  1  0.73929431  0.73929431  0.30542071  1
  O  O10  1  0.73929431  0.30542071  0.73929431  1
