# generated using pymatgen
data_KTlO2
_symmetry_space_group_name_H-M   'P 1'
_cell_length_a   6.41973073
_cell_length_b   6.41973060
_cell_length_c   6.41973098
_cell_angle_alpha   31.20684110
_cell_angle_beta   31.20684505
_cell_angle_gamma   31.20684770
_symmetry_Int_Tables_number   1
_chemical_formula_structural   KTlO2
_chemical_formula_sum   'K1 Tl1 O2'
_cell_volume   63.02965927
_cell_formula_units_Z   1
loop_
 _symmetry_equiv_pos_site_id
 _symmetry_equiv_pos_as_xyz
  1  'x, y, z'
loop_
 _atom_site_type_symbol
 _atom_site_label
 _atom_site_symmetry_multiplicity
 _atom_site_fract_x
 _atom_site_fract_y
 _atom_site_fract_z
 _atom_site_occupancy
  K  K0  1  0.50000000  0.50000000  0.50000000  1
  Tl  Tl1  1  -0.00000000  0.00000000  0.00000000  1
  O  O2  1  0.73208426  0.73208426  0.73208426  1
  O  O3  1  0.26791574  0.26791574  0.26791574  1
