# generated using pymatgen
data_Ca2Pt3O8
_symmetry_space_group_name_H-M   'P 1'
_cell_length_a   6.26375568
_cell_length_b   6.26375473
_cell_length_c   6.26375493
_cell_angle_alpha   59.78814658
_cell_angle_beta   59.78814966
_cell_angle_gamma   59.78814898
_symmetry_Int_Tables_number   1
_chemical_formula_structural   Ca2Pt3O8
_chemical_formula_sum   'Ca2 Pt3 O8'
_cell_volume   172.94002035
_cell_formula_units_Z   1
loop_
 _symmetry_equiv_pos_site_id
 _symmetry_equiv_pos_as_xyz
  1  'x, y, z'
loop_
 _atom_site_type_symbol
 _atom_site_label
 _atom_site_symmetry_multiplicity
 _atom_site_fract_x
 _atom_site_fract_y
 _atom_site_fract_z
 _atom_site_occupancy
  Ca  Ca0  1  0.85486745  0.85486745  0.85486745  1
  Ca  Ca1  1  0.14513255  0.14513255  0.14513255  1
  Pt  Pt2  1  0.50000000  -0.00000000  0.50000000  1
  Pt  Pt3  1  0.00000000  0.50000000  0.50000000  1
  Pt  Pt4  1  0.50000000  0.50000000  0.00000000  1
  O  O5  1  0.60436466  0.60436466  0.60436466  1
  O  O6  1  0.39563534  0.39563534  0.39563534  1
  O  O7  1  0.11325850  0.11325850  0.56003902  1
  O  O8  1  0.11325850  0.56003902  0.11325850  1
  O  O9  1  0.56003902  0.11325850  0.11325850  1
  O  O10  1  0.88674150  0.43996098  0.88674150  1
  O  O11  1  0.88674150  0.88674150  0.43996098  1
  O  O12  1  0.43996098  0.88674150  0.88674150  1
