# generated using pymatgen
data_NaNdO2
_symmetry_space_group_name_H-M   'P 1'
_cell_length_a   4.74060419
_cell_length_b   4.74060438
_cell_length_c   6.42980222
_cell_angle_alpha   111.63196657
_cell_angle_beta   111.63197224
_cell_angle_gamma   89.99999078
_symmetry_Int_Tables_number   1
_chemical_formula_structural   NaNdO2
_chemical_formula_sum   'Na2 Nd2 O4'
_cell_volume   123.30811077
_cell_formula_units_Z   2
loop_
 _symmetry_equiv_pos_site_id
 _symmetry_equiv_pos_as_xyz
  1  'x, y, z'
loop_
 _atom_site_type_symbol
 _atom_site_label
 _atom_site_symmetry_multiplicity
 _atom_site_fract_x
 _atom_site_fract_y
 _atom_site_fract_z
 _atom_site_occupancy
  Na  Na0  1  0.12500000  0.87500000  0.25000000  1
  Na  Na1  1  0.87500000  0.12500000  0.75000000  1
  Nd  Nd2  1  0.37500000  0.62500000  0.75000000  1
  Nd  Nd3  1  0.62500000  0.37500000  0.25000000  1
  O  O4  1  0.15574773  0.40574773  0.31149545  1
  O  O5  1  0.40574773  0.15574773  0.81149545  1
  O  O6  1  0.59425227  0.84425227  0.18850455  1
  O  O7  1  0.84425227  0.59425227  0.68850455  1
