# generated using pymatgen
data_Ba3MoN4
_symmetry_space_group_name_H-M   'P 1'
_cell_length_a   10.45032896
_cell_length_b   10.93170283
_cell_length_c   12.22966963
_cell_angle_alpha   90.00000000
_cell_angle_beta   90.00000000
_cell_angle_gamma   90.00000000
_symmetry_Int_Tables_number   1
_chemical_formula_structural   Ba3MoN4
_chemical_formula_sum   'Ba24 Mo8 N32'
_cell_volume   1397.11612142
_cell_formula_units_Z   8
loop_
 _symmetry_equiv_pos_site_id
 _symmetry_equiv_pos_as_xyz
  1  'x, y, z'
loop_
 _atom_site_type_symbol
 _atom_site_label
 _atom_site_symmetry_multiplicity
 _atom_site_fract_x
 _atom_site_fract_y
 _atom_site_fract_z
 _atom_site_occupancy
  Ba  Ba0  1  0.53153929  0.37421522  0.39438686  1
  Ba  Ba1  1  0.20015816  0.72222495  0.38126594  1
  Ba  Ba2  1  0.79984184  0.77777505  0.88126594  1
  Ba  Ba3  1  0.29984184  0.22222495  0.61873406  1
  Ba  Ba4  1  0.29984184  0.72222495  0.88126594  1
  Ba  Ba5  1  0.79984184  0.27777505  0.61873406  1
  Ba  Ba6  1  0.20015816  0.22222495  0.11873406  1
  Ba  Ba7  1  0.70015816  0.77777505  0.38126594  1
  Ba  Ba8  1  0.70015816  0.27777505  0.11873406  1
  Ba  Ba9  1  0.03153929  0.62578478  0.10561314  1
  Ba  Ba10  1  0.96846071  0.87421522  0.60561314  1
  Ba  Ba11  1  0.46846071  0.12578478  0.89438686  1
  Ba  Ba12  1  0.46846071  0.62578478  0.60561314  1
  Ba  Ba13  1  0.96846071  0.37421522  0.89438686  1
  Ba  Ba14  1  0.03153929  0.12578478  0.39438686  1
  Ba  Ba15  1  0.53153929  0.87421522  0.10561314  1
  Ba  Ba16  1  0.87558149  0.47070360  0.35668014  1
  Ba  Ba17  1  0.37558149  0.52929640  0.14331986  1
  Ba  Ba18  1  0.62441851  0.97070360  0.64331986  1
  Ba  Ba19  1  0.12441851  0.02929640  0.85668014  1
  Ba  Ba20  1  0.12441851  0.52929640  0.64331986  1
  Ba  Ba21  1  0.62441851  0.47070360  0.85668014  1
  Ba  Ba22  1  0.37558149  0.02929640  0.35668014  1
  Ba  Ba23  1  0.87558149  0.97070360  0.14331986  1
  Mo  Mo24  1  0.69893903  0.09575405  0.38615206  1
  Mo  Mo25  1  0.19893903  0.90424595  0.11384794  1
  Mo  Mo26  1  0.80106097  0.59575405  0.61384794  1
  Mo  Mo27  1  0.30106097  0.40424595  0.88615206  1
  Mo  Mo28  1  0.30106097  0.90424595  0.61384794  1
  Mo  Mo29  1  0.80106097  0.09575405  0.88615206  1
  Mo  Mo30  1  0.19893903  0.40424595  0.38615206  1
  Mo  Mo31  1  0.69893903  0.59575405  0.11384794  1
  N  N32  1  0.78958214  0.22623609  0.32336563  1
  N  N33  1  0.28958214  0.77376391  0.17663437  1
  N  N34  1  0.71041786  0.72623609  0.67663437  1
  N  N35  1  0.21041786  0.27376391  0.82336563  1
  N  N36  1  0.21041786  0.77376391  0.67663437  1
  N  N37  1  0.71041786  0.22623609  0.82336563  1
  N  N38  1  0.28958214  0.27376391  0.32336563  1
  N  N39  1  0.78958214  0.72623609  0.17663437  1
  N  N40  1  0.81130229  0.49421555  0.03710341  1
  N  N41  1  0.31130229  0.50578445  0.46289659  1
  N  N42  1  0.68869771  0.99421555  0.96289659  1
  N  N43  1  0.18869771  0.00578445  0.53710341  1
  N  N44  1  0.18869771  0.50578445  0.96289659  1
  N  N45  1  0.68869771  0.49421555  0.53710341  1
  N  N46  1  0.31130229  0.00578445  0.03710341  1
  N  N47  1  0.62202253  0.99756125  0.28129267  1
  N  N48  1  0.57459514  0.15205944  0.48416811  1
  N  N49  1  0.07459514  0.84794056  0.01583189  1
  N  N50  1  0.92540486  0.65205944  0.51583189  1
  N  N51  1  0.42540486  0.34794056  0.98416811  1
  N  N52  1  0.42540486  0.84794056  0.51583189  1
  N  N53  1  0.92540486  0.15205944  0.98416811  1
  N  N54  1  0.07459514  0.34794056  0.48416811  1
  N  N55  1  0.57459514  0.65205944  0.01583189  1
  N  N56  1  0.62202253  0.49756125  0.21870733  1
  N  N57  1  0.12202253  0.50243875  0.28129267  1
  N  N58  1  0.87797747  0.99756125  0.78129267  1
  N  N59  1  0.37797747  0.00243875  0.71870733  1
  N  N60  1  0.37797747  0.50243875  0.78129267  1
  N  N61  1  0.87797747  0.49756125  0.71870733  1
  N  N62  1  0.12202253  0.00243875  0.21870733  1
  N  N63  1  0.81130229  0.99421555  0.46289659  1
