# generated using pymatgen
data_LiMn2PO6
_symmetry_space_group_name_H-M   'P 1'
_cell_length_a   5.10250903
_cell_length_b   7.62372177
_cell_length_c   11.60405971
_cell_angle_alpha   90.00000000
_cell_angle_beta   90.00000000
_cell_angle_gamma   90.00000000
_symmetry_Int_Tables_number   1
_chemical_formula_structural   LiMn2PO6
_chemical_formula_sum   'Li4 Mn8 P4 O24'
_cell_volume   451.39918958
_cell_formula_units_Z   4
loop_
 _symmetry_equiv_pos_site_id
 _symmetry_equiv_pos_as_xyz
  1  'x, y, z'
loop_
 _atom_site_type_symbol
 _atom_site_label
 _atom_site_symmetry_multiplicity
 _atom_site_fract_x
 _atom_site_fract_y
 _atom_site_fract_z
 _atom_site_occupancy
  Li  Li0  1  0.25000000  0.01352016  0.05822970  1
  Li  Li1  1  0.75000000  0.51352016  0.44177030  1
  Li  Li2  1  0.25000000  0.48647984  0.55822970  1
  Li  Li3  1  0.75000000  0.98647984  0.94177030  1
  Mn  Mn4  1  0.75000000  0.29099821  0.07531976  1
  Mn  Mn5  1  0.75000000  0.68699532  0.08826151  1
  Mn  Mn6  1  0.25000000  0.18699532  0.41173849  1
  Mn  Mn7  1  0.25000000  0.79099821  0.42468024  1
  Mn  Mn8  1  0.75000000  0.20900179  0.57531976  1
  Mn  Mn9  1  0.75000000  0.81300468  0.58826151  1
  Mn  Mn10  1  0.25000000  0.31300468  0.91173849  1
  Mn  Mn11  1  0.25000000  0.70900179  0.92468024  1
  P  P12  1  0.25000000  0.46985984  0.20524917  1
  P  P13  1  0.75000000  0.96985984  0.29475083  1
  P  P14  1  0.25000000  0.03014016  0.70524917  1
  P  P15  1  0.75000000  0.53014016  0.79475083  1
  O  O16  1  0.49979564  0.81869649  0.01395347  1
  O  O17  1  0.00020436  0.81869649  0.01395347  1
  O  O18  1  0.00223137  0.48652253  0.12461775  1
  O  O19  1  0.49776863  0.48652253  0.12461775  1
  O  O20  1  0.75000000  0.11470097  0.20793012  1
  O  O21  1  0.25000000  0.28516445  0.25131134  1
  O  O22  1  0.75000000  0.78516445  0.24868866  1
  O  O23  1  0.25000000  0.61470097  0.29206988  1
  O  O24  1  0.50223137  0.98652253  0.37538225  1
  O  O25  1  -0.00223137  0.98652253  0.37538225  1
  O  O26  1  0.99979564  0.31869649  0.48604653  1
  O  O27  1  0.50020436  0.31869649  0.48604653  1
  O  O28  1  0.49979564  0.68130351  0.51395347  1
  O  O29  1  0.00020436  0.68130351  0.51395347  1
  O  O30  1  0.00223137  0.01347747  0.62461775  1
  O  O31  1  0.49776863  0.01347747  0.62461775  1
  O  O32  1  0.75000000  0.38529903  0.70793012  1
  O  O33  1  0.25000000  0.21483555  0.75131134  1
  O  O34  1  0.75000000  0.71483555  0.74868866  1
  O  O35  1  0.25000000  0.88529903  0.79206988  1
  O  O36  1  0.50223137  0.51347747  0.87538225  1
  O  O37  1  -0.00223137  0.51347747  0.87538225  1
  O  O38  1  0.99979564  0.18130351  0.98604653  1
  O  O39  1  0.50020436  0.18130351  0.98604653  1
