# generated using pymatgen
data_LaBO3
_symmetry_space_group_name_H-M   'P 1'
_cell_length_a   5.12056909
_cell_length_b   5.84796030
_cell_length_c   8.25010439
_cell_angle_alpha   90.00000000
_cell_angle_beta   90.00000000
_cell_angle_gamma   90.00000000
_symmetry_Int_Tables_number   1
_chemical_formula_structural   LaBO3
_chemical_formula_sum   'La4 B4 O12'
_cell_volume   247.04842515
_cell_formula_units_Z   4
loop_
 _symmetry_equiv_pos_site_id
 _symmetry_equiv_pos_as_xyz
  1  'x, y, z'
loop_
 _atom_site_type_symbol
 _atom_site_label
 _atom_site_symmetry_multiplicity
 _atom_site_fract_x
 _atom_site_fract_y
 _atom_site_fract_z
 _atom_site_occupancy
  La  La0  1  0.25000000  0.75675578  0.91528839  1
  La  La1  1  0.75000000  0.24324422  0.08471161  1
  La  La2  1  0.25000000  0.25675578  0.58471161  1
  La  La3  1  0.75000000  0.74324422  0.41528839  1
  B  B4  1  0.25000000  0.91791106  0.26129171  1
  B  B5  1  0.75000000  0.08208894  0.73870829  1
  B  B6  1  0.25000000  0.41791106  0.23870829  1
  B  B7  1  0.75000000  0.58208894  0.76129171  1
  O  O8  1  0.75000000  0.59614764  0.92706616  1
  O  O9  1  0.25000000  0.40385236  0.07293384  1
  O  O10  1  0.75000000  0.09614764  0.57293384  1
  O  O11  1  0.25000000  0.90385236  0.42706616  1
  O  O12  1  0.51819798  0.58617893  0.67688169  1
  O  O13  1  0.01819798  0.41382107  0.32311831  1
  O  O14  1  0.98180202  0.08617893  0.82311831  1
  O  O15  1  0.48180202  0.91382107  0.17688169  1
  O  O16  1  0.48180202  0.41382107  0.32311831  1
  O  O17  1  0.98180202  0.58617893  0.67688169  1
  O  O18  1  0.01819798  0.91382107  0.17688169  1
  O  O19  1  0.51819798  0.08617893  0.82311831  1
