# generated using pymatgen
data_Na3CrP8O23
_symmetry_space_group_name_H-M   'P 1'
_cell_length_a   11.86746498
_cell_length_b   11.86746498
_cell_length_c   11.86746498
_cell_angle_alpha   90.00000000
_cell_angle_beta   90.00000000
_cell_angle_gamma   90.00000000
_symmetry_Int_Tables_number   1
_chemical_formula_structural   Na3CrP8O23
_chemical_formula_sum   'Na12 Cr4 P32 O92'
_cell_volume   1671.37490245
_cell_formula_units_Z   4
loop_
 _symmetry_equiv_pos_site_id
 _symmetry_equiv_pos_as_xyz
  1  'x, y, z'
loop_
 _atom_site_type_symbol
 _atom_site_label
 _atom_site_symmetry_multiplicity
 _atom_site_fract_x
 _atom_site_fract_y
 _atom_site_fract_z
 _atom_site_occupancy
  Na  Na0  1  0.37500000  0.95660347  0.79339653  1
  Na  Na1  1  0.87500000  0.54339653  0.20660347  1
  Na  Na2  1  0.04339653  0.29339653  0.12500000  1
  Na  Na3  1  0.95660347  0.79339653  0.37500000  1
  Na  Na4  1  0.20660347  0.87500000  0.54339653  1
  Na  Na5  1  0.29339653  0.12500000  0.04339653  1
  Na  Na6  1  0.45660347  0.70660347  0.62500000  1
  Na  Na7  1  0.79339653  0.37500000  0.95660347  1
  Na  Na8  1  0.70660347  0.62500000  0.45660347  1
  Na  Na9  1  0.54339653  0.20660347  0.87500000  1
  Na  Na10  1  0.62500000  0.45660347  0.70660347  1
  Na  Na11  1  0.12500000  0.04339653  0.29339653  1
  Cr  Cr12  1  0.87500000  0.12500000  0.62500000  1
  Cr  Cr13  1  0.12500000  0.62500000  0.87500000  1
  Cr  Cr14  1  0.62500000  0.87500000  0.12500000  1
  Cr  Cr15  1  0.37500000  0.37500000  0.37500000  1
  P  P16  1  0.06852263  0.35874654  0.85559899  1
  P  P17  1  0.89440101  0.39125346  0.68147737  1
  P  P18  1  0.35874654  0.85559899  0.06852263  1
  P  P19  1  0.85874654  0.64440101  0.93147737  1
  P  P20  1  0.64125346  0.35559899  0.43147737  1
  P  P21  1  0.64440101  0.93147737  0.85874654  1
  P  P22  1  0.43147737  0.64125346  0.35559899  1
  P  P23  1  0.93147737  0.85874654  0.64440101  1
  P  P24  1  0.85559899  0.06852263  0.35874654  1
  P  P25  1  0.60559899  0.60874654  0.18147737  1
  P  P26  1  0.35559899  0.43147737  0.64125346  1
  P  P27  1  0.14440101  0.56852263  0.14125346  1
  P  P28  1  0.81852263  0.10559899  0.89125346  1
  P  P29  1  0.39440101  0.10874654  0.31852263  1
  P  P30  1  0.10559899  0.89125346  0.81852263  1
  P  P31  1  0.68147737  0.89440101  0.39125346  1
  P  P32  1  0.31852263  0.39440101  0.10874654  1
  P  P33  1  0.89125346  0.81852263  0.10559899  1
  P  P34  1  0.39125346  0.68147737  0.89440101  1
  P  P35  1  0.14125346  0.14440101  0.56852263  1
  P  P36  1  0.18147737  0.60559899  0.60874654  1
  P  P37  1  0.10874654  0.31852263  0.39440101  1
  P  P38  1  0.60874654  0.18147737  0.60559899  1
  P  P39  1  0.01981563  0.01981563  0.01981563  1
  P  P40  1  0.26981563  0.23018437  0.76981563  1
  P  P41  1  0.76981563  0.26981563  0.23018437  1
  P  P42  1  0.23018437  0.76981563  0.26981563  1
  P  P43  1  0.48018437  0.98018437  0.51981563  1
  P  P44  1  0.51981563  0.48018437  0.98018437  1
  P  P45  1  0.98018437  0.51981563  0.48018437  1
  P  P46  1  0.73018437  0.73018437  0.73018437  1
  P  P47  1  0.56852263  0.14125346  0.14440101  1
  O  O48  1  0.65887444  0.65887444  0.65887444  1
  O  O49  1  0.90887444  0.59112556  0.40887444  1
  O  O50  1  0.59112556  0.40887444  0.90887444  1
  O  O51  1  0.40887444  0.90887444  0.59112556  1
  O  O52  1  0.15887444  0.84112556  0.34112556  1
  O  O53  1  0.84112556  0.34112556  0.15887444  1
  O  O54  1  0.34112556  0.15887444  0.84112556  1
  O  O55  1  0.09112556  0.09112556  0.09112556  1
  O  O56  1  0.43822622  0.51413360  0.68220423  1
  O  O57  1  0.93822622  0.98586640  0.31779577  1
  O  O58  1  0.51413360  0.68220423  0.43822622  1
  O  O59  1  0.48586640  0.18220423  0.06177378  1
  O  O60  1  0.68220423  0.43822622  0.51413360  1
  O  O61  1  0.81779577  0.56177378  0.01413360  1
  O  O62  1  0.18822622  0.93220423  0.73586640  1
  O  O63  1  0.68822622  0.56779577  0.26413360  1
  O  O64  1  0.81177378  0.43220423  0.76413360  1
  O  O65  1  0.56779577  0.26413360  0.68822622  1
  O  O66  1  0.76413360  0.81177378  0.43220423  1
  O  O67  1  0.26413360  0.68822622  0.56779577  1
  O  O68  1  0.93220423  0.73586640  0.18822622  1
  O  O69  1  0.73586640  0.18822622  0.93220423  1
  O  O70  1  0.43220423  0.76413360  0.81177378  1
  O  O71  1  0.06779577  0.23586640  0.31177378  1
  O  O72  1  0.23586640  0.31177378  0.06779577  1
  O  O73  1  0.31779577  0.93822622  0.98586640  1
  O  O74  1  0.18220423  0.06177378  0.48586640  1
  O  O75  1  0.01413360  0.81779577  0.56177378  1
  O  O76  1  0.98586640  0.31779577  0.93822622  1
  O  O77  1  0.06177378  0.48586640  0.18220423  1
  O  O78  1  0.56177378  0.01413360  0.81779577  1
  O  O79  1  0.31177378  0.06779577  0.23586640  1
  O  O80  1  0.62500000  0.23329360  0.48329360  1
  O  O81  1  0.76670640  0.98329360  0.87500000  1
  O  O82  1  0.74245597  0.32802820  0.34476585  1
  O  O83  1  0.48329360  0.62500000  0.23329360  1
  O  O84  1  0.23329360  0.48329360  0.62500000  1
  O  O85  1  0.51670640  0.12500000  0.26670640  1
  O  O86  1  0.98329360  0.87500000  0.76670640  1
  O  O87  1  0.73329360  0.01670640  0.37500000  1
  O  O88  1  0.26670640  0.51670640  0.12500000  1
  O  O89  1  0.87500000  0.76670640  0.98329360  1
  O  O90  1  0.37500000  0.73329360  0.01670640  1
  O  O91  1  0.12500000  0.26670640  0.51670640  1
  O  O92  1  0.32802820  0.34476585  0.74245597  1
  O  O93  1  0.82802820  0.15523415  0.25754403  1
  O  O94  1  0.34476585  0.74245597  0.32802820  1
  O  O95  1  0.65523415  0.24245597  0.17197180  1
  O  O96  1  0.03970141  0.11877931  0.63742678  1
  O  O97  1  0.28970141  0.61257322  0.86877931  1
  O  O98  1  0.78970141  0.88742678  0.13122069  1
  O  O99  1  0.38742678  0.36877931  0.21029859  1
  O  O100  1  0.61257322  0.86877931  0.28970141  1
  O  O101  1  0.13122069  0.78970141  0.88742678  1
  O  O102  1  0.36877931  0.21029859  0.38742678  1
  O  O103  1  0.63742678  0.03970141  0.11877931  1
  O  O104  1  0.11877931  0.63742678  0.03970141  1
  O  O105  1  0.38122069  0.36257322  0.53970141  1
  O  O106  1  0.13742678  0.46029859  0.88122069  1
  O  O107  1  0.88122069  0.13742678  0.46029859  1
  O  O108  1  0.86257322  0.96029859  0.61877931  1
  O  O109  1  0.36257322  0.53970141  0.38122069  1
  O  O110  1  0.61877931  0.86257322  0.96029859  1
  O  O111  1  0.53970141  0.38122069  0.36257322  1
  O  O112  1  0.96029859  0.61877931  0.86257322  1
  O  O113  1  0.46029859  0.88122069  0.13742678  1
  O  O114  1  0.86877931  0.28970141  0.61257322  1
  O  O115  1  0.63122069  0.71029859  0.11257322  1
  O  O116  1  0.88742678  0.13122069  0.78970141  1
  O  O117  1  0.11257322  0.63122069  0.71029859  1
  O  O118  1  0.21029859  0.38742678  0.36877931  1
  O  O119  1  0.71029859  0.11257322  0.63122069  1
  O  O120  1  0.42197180  0.00754403  0.40523415  1
  O  O121  1  0.67197180  0.84476585  0.75754403  1
  O  O122  1  0.17197180  0.65523415  0.24245597  1
  O  O123  1  0.15523415  0.25754403  0.82802820  1
  O  O124  1  0.84476585  0.75754403  0.67197180  1
  O  O125  1  0.24245597  0.17197180  0.65523415  1
  O  O126  1  0.25754403  0.82802820  0.15523415  1
  O  O127  1  0.40523415  0.42197180  0.00754403  1
  O  O128  1  0.00754403  0.40523415  0.42197180  1
  O  O129  1  0.49245597  0.59476585  0.92197180  1
  O  O130  1  0.90523415  0.07802820  0.99245597  1
  O  O131  1  0.99245597  0.90523415  0.07802820  1
  O  O132  1  0.09476585  0.57802820  0.50754403  1
  O  O133  1  0.59476585  0.92197180  0.49245597  1
  O  O134  1  0.50754403  0.09476585  0.57802820  1
  O  O135  1  0.92197180  0.49245597  0.59476585  1
  O  O136  1  0.57802820  0.50754403  0.09476585  1
  O  O137  1  0.07802820  0.99245597  0.90523415  1
  O  O138  1  0.75754403  0.67197180  0.84476585  1
  O  O139  1  0.01670640  0.37500000  0.73329360  1
