# generated using pymatgen
data_Ba4(PtO3)3
_symmetry_space_group_name_H-M   'P 1'
_cell_length_a   8.65449908
_cell_length_b   10.12232027
_cell_length_c   10.19619853
_cell_angle_alpha   119.65290098
_cell_angle_beta   89.85661322
_cell_angle_gamma   90.25839181
_symmetry_Int_Tables_number   1
_chemical_formula_structural   Ba4(PtO3)3
_chemical_formula_sum   'Ba12 Pt9 O27'
_cell_volume   776.23795542
_cell_formula_units_Z   3
loop_
 _symmetry_equiv_pos_site_id
 _symmetry_equiv_pos_as_xyz
  1  'x, y, z'
loop_
 _atom_site_type_symbol
 _atom_site_label
 _atom_site_symmetry_multiplicity
 _atom_site_fract_x
 _atom_site_fract_y
 _atom_site_fract_z
 _atom_site_occupancy
  Ba  Ba0  1  0.74807613  0.30942824  0.33571754  1
  Ba  Ba1  1  0.00013796  0.65300804  0.66288527  1
  Ba  Ba2  1  0.50200709  0.66700694  0.67607657  1
  Ba  Ba3  1  0.75204692  0.01829282  0.69288847  1
  Ba  Ba4  1  0.74933367  0.67285270  0.98660019  1
  Ba  Ba5  1  0.50020207  0.35319171  0.00196939  1
  Ba  Ba6  1  0.99943608  0.37188270  0.00234189  1
  Ba  Ba7  1  0.25067147  0.68251541  0.00657161  1
  Ba  Ba8  1  0.25044565  0.33518810  0.31316353  1
  Ba  Ba9  1  0.49831303  0.99337388  0.33005906  1
  Ba  Ba10  1  0.99746605  0.99141057  0.35207369  1
  Ba  Ba11  1  0.24882751  0.96970241  0.66915070  1
  Pt  Pt12  1  0.66073801  0.00324434  0.99677174  1
  Pt  Pt13  1  0.24363011  0.25290047  0.59368750  1
  Pt  Pt14  1  0.90499812  0.33261127  0.66890918  1
  Pt  Pt15  1  0.58181975  0.33120336  0.66904984  1
  Pt  Pt16  1  0.99981673  0.07893926  0.07408053  1
  Pt  Pt17  1  0.41884256  0.66755232  0.33024916  1
  Pt  Pt18  1  0.09562966  0.66758394  0.33168429  1
  Pt  Pt19  1  0.75698263  0.66409349  0.40692205  1
  Pt  Pt20  1  0.33857060  0.00140326  0.99699723  1
  O  O21  1  0.49861541  0.15972766  0.15296867  1
  O  O22  1  0.18405067  0.00510450  0.14867397  1
  O  O23  1  0.05849444  0.32133455  0.51360752  1
  O  O24  1  0.42939734  0.32153615  0.51520860  1
  O  O25  1  0.74348199  0.16589365  0.51549291  1
  O  O26  1  0.74376260  0.47143978  0.65459496  1
  O  O27  1  0.05899447  0.18466090  0.67631160  1
  O  O28  1  0.42558469  0.18489049  0.67488799  1
  O  O29  1  0.74335000  0.33857145  0.82165694  1
  O  O30  1  0.46834519  0.50373321  0.83228675  1
  O  O31  1  0.01979463  0.51010885  0.83100406  1
  O  O32  1  0.22737093  0.82333558  0.82876604  1
  O  O33  1  0.18268093  0.15186718  0.99575208  1
  O  O34  1  0.50025217  0.86026074  0.00314360  1
  O  O35  1  0.81675695  0.15807671  0.00359307  1
  O  O36  1  0.81437923  0.00114299  0.14635699  1
  O  O37  1  0.97854495  0.68386337  0.17032636  1
  O  O38  1  0.53368846  0.68093341  0.16895634  1
  O  O39  1  0.25606552  0.52195246  0.17846391  1
  O  O40  1  0.57416776  0.51567641  0.32290959  1
  O  O41  1  0.94024446  0.51463489  0.32711547  1
  O  O42  1  0.25776352  0.82267130  0.34514450  1
  O  O43  1  0.25641128  0.65206450  0.48058121  1
  O  O44  1  0.57177886  0.81156227  0.48387970  1
  O  O45  1  0.94505509  0.81120759  0.49142618  1
  O  O46  1  0.77359552  0.83270174  0.82424375  1
  O  O47  1  0.49970312  0.00886844  0.85317082  1
