# generated using pymatgen
data_K2Ti6O13
_symmetry_space_group_name_H-M   'P 1'
_cell_length_a   8.03523539
_cell_length_b   8.03523539
_cell_length_c   9.14949154
_cell_angle_alpha   80.55975549
_cell_angle_beta   80.55975549
_cell_angle_gamma   27.32642140
_symmetry_Int_Tables_number   1
_chemical_formula_structural   K2Ti6O13
_chemical_formula_sum   'K2 Ti6 O13'
_cell_volume   267.29211016
_cell_formula_units_Z   1
loop_
 _symmetry_equiv_pos_site_id
 _symmetry_equiv_pos_as_xyz
  1  'x, y, z'
loop_
 _atom_site_type_symbol
 _atom_site_label
 _atom_site_symmetry_multiplicity
 _atom_site_fract_x
 _atom_site_fract_y
 _atom_site_fract_z
 _atom_site_occupancy
  K  K0  1  0.45447153  0.45447153  0.75536440  1
  K  K1  1  0.54552847  0.54552847  0.24463560  1
  Ti  Ti2  1  0.23203763  0.23203763  0.22497158  1
  Ti  Ti3  1  0.76796237  0.76796237  0.77502842  1
  Ti  Ti4  1  0.17079191  0.17079191  0.56307206  1
  Ti  Ti5  1  0.82920809  0.82920809  0.43692794  1
  Ti  Ti6  1  0.11481550  0.11481550  0.90396002  1
  Ti  Ti7  1  0.88518450  0.88518450  0.09603998  1
  O  O8  1  0.16680811  0.16680811  0.08420927  1
  O  O9  1  0.83319189  0.83319189  0.91579073  1
  O  O10  1  0.35796537  0.35796537  0.11338505  1
  O  O11  1  0.64203463  0.64203463  0.88661495  1
  O  O12  1  0.13410156  0.13410156  0.38415310  1
  O  O13  1  0.86589844  0.86589844  0.61584690  1
  O  O14  1  0.29647059  0.29647059  0.42793835  1
  O  O15  1  0.70352941  0.70352941  0.57206165  1
  O  O16  1  0.00000000  0.00000000  -0.00000000  1
  O  O17  1  0.76086192  0.76086192  0.24145065  1
  O  O18  1  0.23913808  0.23913808  0.75854935  1
  O  O19  1  0.92270855  0.92270855  0.29076547  1
  O  O20  1  0.07729145  0.07729145  0.70923453  1
