# generated using pymatgen
data_Ca2Tl2O5
_symmetry_space_group_name_H-M   'P 1'
_cell_length_a   13.54426326
_cell_length_b   5.86272308
_cell_length_c   6.70660748
_cell_angle_alpha   73.47793302
_cell_angle_beta   90.00000000
_cell_angle_gamma   90.00000000
_symmetry_Int_Tables_number   1
_chemical_formula_structural   Ca2Tl2O5
_chemical_formula_sum   'Ca8 Tl8 O20'
_cell_volume   510.55794640
_cell_formula_units_Z   4
loop_
 _symmetry_equiv_pos_site_id
 _symmetry_equiv_pos_as_xyz
  1  'x, y, z'
loop_
 _atom_site_type_symbol
 _atom_site_label
 _atom_site_symmetry_multiplicity
 _atom_site_fract_x
 _atom_site_fract_y
 _atom_site_fract_z
 _atom_site_occupancy
  Ca  Ca0  1  0.11209118  0.54663707  0.86435268  1
  Ca  Ca1  1  0.76085157  0.94082379  0.76290238  1
  Ca  Ca2  1  0.88790882  0.45336293  0.13564732  1
  Ca  Ca3  1  0.23914843  0.05917621  0.23709762  1
  Ca  Ca4  1  0.38790882  0.54663707  0.36435268  1
  Ca  Ca5  1  0.73914843  0.94082379  0.26290238  1
  Ca  Ca6  1  0.26085157  0.05917621  0.73709762  1
  Ca  Ca7  1  0.61209118  0.45336293  0.63564732  1
  Tl  Tl8  1  0.38587983  0.54260749  0.86249670  1
  Tl  Tl9  1  -0.00000000  0.00000000  -0.00000000  1
  Tl  Tl10  1  0.61412017  0.45739251  0.13750330  1
  Tl  Tl11  1  0.50000000  0.00000000  -0.00000000  1
  Tl  Tl12  1  0.11412017  0.54260749  0.36249670  1
  Tl  Tl13  1  0.50000000  0.00000000  0.50000000  1
  Tl  Tl14  1  0.88587983  0.45739251  0.63750330  1
  Tl  Tl15  1  -0.00000000  0.00000000  0.50000000  1
  O  O16  1  0.64319999  0.16524101  0.95894483  1
  O  O17  1  0.85532883  0.15862579  0.96292962  1
  O  O18  1  0.25516314  0.34255488  0.91798559  1
  O  O19  1  0.94697155  0.72405572  0.82125895  1
  O  O20  1  0.53730849  0.70407700  0.82110817  1
  O  O21  1  0.05302845  0.27594428  0.17874105  1
  O  O22  1  0.74483686  0.65744512  0.08201441  1
  O  O23  1  0.35680001  0.83475899  0.04105517  1
  O  O24  1  0.14467117  0.84137421  0.03707038  1
  O  O25  1  0.46269151  0.29592300  0.17889183  1
  O  O26  1  0.85680001  0.16524101  0.45894483  1
  O  O27  1  0.64467117  0.15862579  0.46292962  1
  O  O28  1  0.55302845  0.72405572  0.32125895  1
  O  O29  1  0.24483686  0.34255488  0.41798559  1
  O  O30  1  0.96269151  0.70407700  0.32110817  1
  O  O31  1  0.03730849  0.29592300  0.67889183  1
  O  O32  1  0.44697155  0.27594428  0.67874105  1
  O  O33  1  0.14319999  0.83475899  0.54105517  1
  O  O34  1  0.35532883  0.84137421  0.53707038  1
  O  O35  1  0.75516314  0.65744512  0.58201441  1
