# generated using pymatgen
data_Dy2S3
_symmetry_space_group_name_H-M   'P 1'
_cell_length_a   3.87384406
_cell_length_b   7.30210526
_cell_length_c   15.15901037
_cell_angle_alpha   90.00000000
_cell_angle_beta   90.00000000
_cell_angle_gamma   90.00000000
_symmetry_Int_Tables_number   1
_chemical_formula_structural   Dy2S3
_chemical_formula_sum   'Dy8 S12'
_cell_volume   428.80621716
_cell_formula_units_Z   4
loop_
 _symmetry_equiv_pos_site_id
 _symmetry_equiv_pos_as_xyz
  1  'x, y, z'
loop_
 _atom_site_type_symbol
 _atom_site_label
 _atom_site_symmetry_multiplicity
 _atom_site_fract_x
 _atom_site_fract_y
 _atom_site_fract_z
 _atom_site_occupancy
  Dy  Dy0  1  0.25000000  0.76648701  0.54282247  1
  Dy  Dy1  1  0.75000000  0.23351299  0.45717753  1
  Dy  Dy2  1  0.25000000  0.26648701  0.95717753  1
  Dy  Dy3  1  0.75000000  0.73351299  0.04282247  1
  Dy  Dy4  1  0.75000000  0.85873074  0.79558733  1
  Dy  Dy5  1  0.25000000  0.14126926  0.20441267  1
  Dy  Dy6  1  0.75000000  0.35873074  0.70441267  1
  Dy  Dy7  1  0.25000000  0.64126926  0.29558733  1
  S  S8  1  0.25000000  0.65098476  0.71829858  1
  S  S9  1  0.75000000  0.34901524  0.28170142  1
  S  S10  1  0.25000000  0.15098476  0.78170142  1
  S  S11  1  0.75000000  0.84901524  0.21829858  1
  S  S12  1  0.75000000  0.62360805  0.43237447  1
  S  S13  1  0.25000000  0.37639195  0.56762553  1
  S  S14  1  0.75000000  0.12360805  0.06762553  1
  S  S15  1  0.25000000  0.87639195  0.93237447  1
  S  S16  1  0.25000000  0.51076387  0.10746575  1
  S  S17  1  0.75000000  0.48923613  0.89253425  1
  S  S18  1  0.25000000  0.01076387  0.39253425  1
  S  S19  1  0.75000000  0.98923613  0.60746575  1
