# generated using pymatgen
data_Na5ReO6
_symmetry_space_group_name_H-M   'P 1'
_cell_length_a   5.58446856
_cell_length_b   5.58446894
_cell_length_c   5.55555979
_cell_angle_alpha   100.24977810
_cell_angle_beta   100.24977193
_cell_angle_gamma   119.43322666
_symmetry_Int_Tables_number   1
_chemical_formula_structural   Na5ReO6
_chemical_formula_sum   'Na5 Re1 O6'
_cell_volume   141.18862439
_cell_formula_units_Z   1
loop_
 _symmetry_equiv_pos_site_id
 _symmetry_equiv_pos_as_xyz
  1  'x, y, z'
loop_
 _atom_site_type_symbol
 _atom_site_label
 _atom_site_symmetry_multiplicity
 _atom_site_fract_x
 _atom_site_fract_y
 _atom_site_fract_z
 _atom_site_occupancy
  Na  Na0  1  0.66632360  0.33367640  0.00000000  1
  Na  Na1  1  0.82681213  0.17318787  0.50000000  1
  Na  Na2  1  0.33367640  0.66632360  -0.00000000  1
  Na  Na3  1  0.17318787  0.82681213  0.50000000  1
  Na  Na4  1  0.50000000  0.50000000  0.50000000  1
  Re  Re5  1  -0.00000000  0.00000000  -0.00000000  1
  O  O6  1  0.79522454  0.79522454  0.20618934  1
  O  O7  1  0.20477546  0.20477546  0.79381066  1
  O  O8  1  0.92935103  0.64941187  0.78456440  1
  O  O9  1  0.35058813  0.07064897  0.21543560  1
  O  O10  1  0.07064897  0.35058813  0.21543560  1
  O  O11  1  0.64941187  0.92935103  0.78456440  1
