# generated using pymatgen
data_Ag2GePbS4
_symmetry_space_group_name_H-M   'P 1'
_cell_length_a   6.23396020
_cell_length_b   6.23396020
_cell_length_c   10.17967010
_cell_angle_alpha   90.00000000
_cell_angle_beta   90.00000000
_cell_angle_gamma   112.78809798
_symmetry_Int_Tables_number   1
_chemical_formula_structural   Ag2GePbS4
_chemical_formula_sum   'Ag4 Ge2 Pb2 S8'
_cell_volume   364.72549464
_cell_formula_units_Z   2
loop_
 _symmetry_equiv_pos_site_id
 _symmetry_equiv_pos_as_xyz
  1  'x, y, z'
loop_
 _atom_site_type_symbol
 _atom_site_label
 _atom_site_symmetry_multiplicity
 _atom_site_fract_x
 _atom_site_fract_y
 _atom_site_fract_z
 _atom_site_occupancy
  Ag  Ag0  1  0.58912833  0.35576076  0.90087941  1
  Ag  Ag1  1  0.58912833  0.35576076  0.59912059  1
  Ag  Ag2  1  0.35576076  0.58912833  0.40087941  1
  Ag  Ag3  1  0.35576076  0.58912833  0.09912159  1
  Ge  Ge4  1  0.32368129  0.72719112  0.75000000  1
  Ge  Ge5  1  0.72719112  0.32368129  0.25000000  1
  Pb  Pb6  1  0.98706991  0.98706991  -0.00000000  1
  Pb  Pb7  1  0.98706991  0.98706991  0.50000000  1
  S  S8  1  0.50999952  0.90632152  0.93090669  1
  S  S9  1  0.97330214  0.73910811  0.75000000  1
  S  S10  1  0.27544727  0.35489896  0.75000000  1
  S  S11  1  0.50999952  0.90632152  0.56909331  1
  S  S12  1  0.90632152  0.50999952  0.43090669  1
  S  S13  1  0.73910811  0.97330214  0.25000000  1
  S  S14  1  0.35489896  0.27544727  0.25000000  1
  S  S15  1  0.90632152  0.50999952  0.06909331  1
