# generated using pymatgen
data_NaAlSiO4
_symmetry_space_group_name_H-M   'P 1'
_cell_length_a   7.31278106
_cell_length_b   7.31278106
_cell_length_c   7.31278106
_cell_angle_alpha   90.00000000
_cell_angle_beta   90.00000000
_cell_angle_gamma   90.00000000
_symmetry_Int_Tables_number   1
_chemical_formula_structural   NaAlSiO4
_chemical_formula_sum   'Na4 Al4 Si4 O16'
_cell_volume   391.06388764
_cell_formula_units_Z   4
loop_
 _symmetry_equiv_pos_site_id
 _symmetry_equiv_pos_as_xyz
  1  'x, y, z'
loop_
 _atom_site_type_symbol
 _atom_site_label
 _atom_site_symmetry_multiplicity
 _atom_site_fract_x
 _atom_site_fract_y
 _atom_site_fract_z
 _atom_site_occupancy
  Na  Na0  1  0.22736420  0.27263580  0.72736420  1
  Na  Na1  1  0.27263580  0.72736420  0.22736420  1
  Na  Na2  1  0.72736420  0.22736420  0.27263580  1
  Na  Na3  1  0.77263580  0.77263580  0.77263580  1
  Al  Al4  1  0.71525679  0.78474321  0.21525679  1
  Al  Al5  1  0.78474321  0.21525679  0.71525679  1
  Al  Al6  1  0.21525679  0.71525679  0.78474321  1
  Al  Al7  1  0.28474321  0.28474321  0.28474321  1
  Si  Si8  1  0.97721110  0.52278890  0.47721110  1
  Si  Si9  1  0.52278890  0.47721110  0.97721110  1
  Si  Si10  1  0.47721110  0.97721110  0.52278890  1
  Si  Si11  1  0.02278890  0.02278890  0.02278890  1
  O  O12  1  0.87166547  0.33398582  0.52691749  1
  O  O13  1  0.37166547  0.16601418  0.47308251  1
  O  O14  1  0.12833453  0.83398582  0.97308251  1
  O  O15  1  0.16601418  0.47308251  0.37166547  1
  O  O16  1  0.97308251  0.12833453  0.83398582  1
  O  O17  1  0.47308251  0.37166547  0.16601418  1
  O  O18  1  0.33398582  0.52691749  0.87166547  1
  O  O19  1  0.52691749  0.87166547  0.33398582  1
  O  O20  1  0.83398582  0.97308251  0.12833453  1
  O  O21  1  0.66601418  0.02691749  0.62833453  1
  O  O22  1  0.02691749  0.62833453  0.66601418  1
  O  O23  1  0.62833453  0.66601418  0.02691749  1
  O  O24  1  0.14898513  0.14898513  0.14898513  1
  O  O25  1  0.35101487  0.85101487  0.64898513  1
  O  O26  1  0.64898513  0.35101487  0.85101487  1
  O  O27  1  0.85101487  0.64898513  0.35101487  1
