# generated using pymatgen
data_Li8PtO6
_symmetry_space_group_name_H-M   'P 1'
_cell_length_a   5.86865755
_cell_length_b   5.86865841
_cell_length_c   5.86865822
_cell_angle_alpha   54.70043012
_cell_angle_beta   54.70042739
_cell_angle_gamma   54.70043809
_symmetry_Int_Tables_number   1
_chemical_formula_structural   Li8PtO6
_chemical_formula_sum   'Li8 Pt1 O6'
_cell_volume   125.27838741
_cell_formula_units_Z   1
loop_
 _symmetry_equiv_pos_site_id
 _symmetry_equiv_pos_as_xyz
  1  'x, y, z'
loop_
 _atom_site_type_symbol
 _atom_site_label
 _atom_site_symmetry_multiplicity
 _atom_site_fract_x
 _atom_site_fract_y
 _atom_site_fract_z
 _atom_site_occupancy
  Li  Li0  1  0.34290836  0.34290836  0.34290836  1
  Li  Li1  1  0.51389266  0.90051792  0.23327185  1
  Li  Li2  1  0.23327185  0.51389266  0.90051792  1
  Li  Li3  1  0.90051792  0.23327185  0.51389266  1
  Li  Li4  1  0.48610734  0.09948208  0.76672815  1
  Li  Li5  1  0.76672815  0.48610734  0.09948208  1
  Li  Li6  1  0.65709164  0.65709164  0.65709164  1
  Li  Li7  1  0.09948208  0.76672815  0.48610734  1
  Pt  Pt8  1  -0.00000000  0.00000000  -0.00000000  1
  O  O9  1  0.23732484  0.90679732  0.61442716  1
  O  O10  1  0.09320268  0.38557284  0.76267516  1
  O  O11  1  0.76267516  0.09320268  0.38557284  1
  O  O12  1  0.61442716  0.23732484  0.90679732  1
  O  O13  1  0.90679732  0.61442716  0.23732484  1
  O  O14  1  0.38557284  0.76267516  0.09320268  1
