# generated using pymatgen
data_KNaGdTaO5
_symmetry_space_group_name_H-M   'P 1'
_cell_length_a   5.66517340
_cell_length_b   5.66517340
_cell_length_c   8.20498092
_cell_angle_alpha   90.00000000
_cell_angle_beta   90.00000000
_cell_angle_gamma   89.99999616
_symmetry_Int_Tables_number   1
_chemical_formula_structural   KNaGdTaO5
_chemical_formula_sum   'K2 Na2 Gd2 Ta2 O10'
_cell_volume   263.33221374
_cell_formula_units_Z   2
loop_
 _symmetry_equiv_pos_site_id
 _symmetry_equiv_pos_as_xyz
  1  'x, y, z'
loop_
 _atom_site_type_symbol
 _atom_site_label
 _atom_site_symmetry_multiplicity
 _atom_site_fract_x
 _atom_site_fract_y
 _atom_site_fract_z
 _atom_site_occupancy
  K  K0  1  0.00000000  -0.00000000  0.00000000  1
  K  K1  1  0.50000000  0.50000000  0.00000000  1
  Na  Na2  1  0.00000000  0.50000000  0.24167540  1
  Na  Na3  1  0.50000000  -0.00000000  0.75832460  1
  Gd  Gd4  1  0.00000000  -0.00000000  0.50000000  1
  Gd  Gd5  1  0.50000000  0.50000000  0.50000000  1
  Ta  Ta6  1  0.50000000  -0.00000000  0.26035711  1
  Ta  Ta7  1  0.00000000  0.50000000  0.73964289  1
  O  O8  1  0.50000000  -0.00000000  0.03479836  1
  O  O9  1  0.26740926  0.76740926  0.33205076  1
  O  O10  1  0.73259080  0.76740920  0.33205066  1
  O  O11  1  0.26740920  0.23259080  0.33205066  1
  O  O12  1  0.73259074  0.23259074  0.33205076  1
  O  O13  1  0.76740926  0.26740926  0.66794924  1
  O  O14  1  0.23259080  0.26740920  0.66794934  1
  O  O15  1  0.76740920  0.73259080  0.66794934  1
  O  O16  1  0.23259074  0.73259074  0.66794924  1
  O  O17  1  0.00000000  0.50000000  0.96520164  1
