# generated using pymatgen
data_LaCrC6N6O5
_symmetry_space_group_name_H-M   'P 1'
_cell_length_a   13.56705100
_cell_length_b   8.08696100
_cell_length_c   8.14331293
_cell_angle_alpha   60.32492859
_cell_angle_beta   90.00000000
_cell_angle_gamma   90.00000000
_symmetry_Int_Tables_number   1
_chemical_formula_structural   LaCrC6N6O5
_chemical_formula_sum   'La2 Cr2 C12 N12 O10'
_cell_volume   776.27434903
_cell_formula_units_Z   2
loop_
 _symmetry_equiv_pos_site_id
 _symmetry_equiv_pos_as_xyz
  1  'x, y, z'
loop_
 _atom_site_type_symbol
 _atom_site_label
 _atom_site_symmetry_multiplicity
 _atom_site_fract_x
 _atom_site_fract_y
 _atom_site_fract_z
 _atom_site_occupancy
  La  La0  1  0.25000000  0.33267000  0.33595800  1
  La  La1  1  0.75000000  0.66733000  0.66404200  1
  Cr  Cr2  1  0.50000000  0.00000000  0.00000000  1
  Cr  Cr3  1  0.00000000  0.00000000  0.00000000  1
  C  C4  1  0.41392800  0.75335400  0.10329900  1
  C  C5  1  0.41335400  0.10912100  0.13767500  1
  C  C6  1  0.41531200  0.13836900  0.75556900  1
  C  C7  1  0.91392800  0.24664600  0.89670100  1
  C  C8  1  0.91335400  0.89087900  0.86232500  1
  C  C9  1  0.91531200  0.86163100  0.24443100  1
  C  C10  1  0.58607200  0.24664600  0.89670100  1
  C  C11  1  0.58664600  0.89087900  0.86232500  1
  C  C12  1  0.58468800  0.86163100  0.24443100  1
  C  C13  1  0.08607200  0.75335400  0.10329900  1
  C  C14  1  0.08664600  0.10912100  0.13767500  1
  C  C15  1  0.08468800  0.13836900  0.75556900  1
  N  N16  1  0.36642700  0.17167500  0.21542800  1
  N  N17  1  0.36960400  0.21759000  0.61569000  1
  N  N18  1  0.36740000  0.61277800  0.16813500  1
  N  N19  1  0.86642700  0.82832500  0.78457200  1
  N  N20  1  0.86960400  0.78241000  0.38431000  1
  N  N21  1  0.86740000  0.38722200  0.83186500  1
  N  N22  1  0.63357300  0.82832500  0.78457200  1
  N  N23  1  0.63039600  0.78241000  0.38431000  1
  N  N24  1  0.63260000  0.38722200  0.83186500  1
  N  N25  1  0.13357300  0.17167500  0.21542800  1
  N  N26  1  0.13039600  0.21759000  0.61569000  1
  N  N27  1  0.13260000  0.61277800  0.16813500  1
  O  O28  1  0.67008200  0.33427000  0.38274200  1
  O  O29  1  0.17008200  0.66573000  0.61725800  1
  O  O30  1  0.32991800  0.66573000  0.61725800  1
  O  O31  1  0.82991800  0.33427000  0.38274200  1
  O  O32  1  0.25000000  0.60689400  0.57487300  1
  O  O33  1  0.25000000  0.49511800  0.94284400  1
  O  O34  1  0.25000000  0.89558200  0.59345700  1
  O  O35  1  0.75000000  0.39310600  0.42512700  1
  O  O36  1  0.75000000  0.50488200  0.05715600  1
  O  O37  1  0.75000000  0.10441800  0.40654300  1
