# generated using pymatgen
data_Li2CeAs2
_symmetry_space_group_name_H-M   'P 1'
_cell_length_a   4.26268044
_cell_length_b   4.26267942
_cell_length_c   6.82989970
_cell_angle_alpha   90.00000000
_cell_angle_beta   90.00000000
_cell_angle_gamma   119.99999195
_symmetry_Int_Tables_number   1
_chemical_formula_structural   Li2CeAs2
_chemical_formula_sum   'Li2 Ce1 As2'
_cell_volume   107.47573930
_cell_formula_units_Z   1
loop_
 _symmetry_equiv_pos_site_id
 _symmetry_equiv_pos_as_xyz
  1  'x, y, z'
loop_
 _atom_site_type_symbol
 _atom_site_label
 _atom_site_symmetry_multiplicity
 _atom_site_fract_x
 _atom_site_fract_y
 _atom_site_fract_z
 _atom_site_occupancy
  Li  Li0  1  0.66666700  0.33333300  0.37653039  1
  Li  Li1  1  0.33333300  0.66666700  0.62346961  1
  Ce  Ce2  1  0.00000000  -0.00000000  0.00000000  1
  As  As3  1  0.66666700  0.33333300  0.76759297  1
  As  As4  1  0.33333300  0.66666700  0.23240703  1
