# generated using pymatgen
data_Ba3Zr2S7
_symmetry_space_group_name_H-M   'P 1'
_cell_length_a   7.12790196
_cell_length_b   7.12790196
_cell_length_c   25.58530508
_cell_angle_alpha   90.00000000
_cell_angle_beta   90.00000000
_cell_angle_gamma   90.00000000
_symmetry_Int_Tables_number   1
_chemical_formula_structural   Ba3Zr2S7
_chemical_formula_sum   'Ba12 Zr8 S28'
_cell_volume   1299.91224600
_cell_formula_units_Z   4
loop_
 _symmetry_equiv_pos_site_id
 _symmetry_equiv_pos_as_xyz
  1  'x, y, z'
loop_
 _atom_site_type_symbol
 _atom_site_label
 _atom_site_symmetry_multiplicity
 _atom_site_fract_x
 _atom_site_fract_y
 _atom_site_fract_z
 _atom_site_occupancy
  Ba  Ba0  1  0.25340176  0.74659824  0.50000000  1
  Ba  Ba1  1  0.75340176  0.75340176  0.00000000  1
  Ba  Ba2  1  0.24659824  0.24659824  0.00000000  1
  Ba  Ba3  1  0.74659824  0.25340176  0.50000000  1
  Ba  Ba4  1  0.76227997  0.23772003  0.68162153  1
  Ba  Ba5  1  0.23772003  0.76227997  0.68162153  1
  Ba  Ba6  1  0.23772003  0.76227997  0.31837847  1
  Ba  Ba7  1  0.73772003  0.73772003  0.18162153  1
  Ba  Ba8  1  0.26227997  0.26227997  0.18162153  1
  Ba  Ba9  1  0.73772003  0.73772003  0.81837847  1
  Ba  Ba10  1  0.26227997  0.26227997  0.81837847  1
  Ba  Ba11  1  0.76227997  0.23772003  0.31837847  1
  Zr  Zr12  1  0.74925490  0.74925490  0.59954545  1
  Zr  Zr13  1  0.25074510  0.25074510  0.59954545  1
  Zr  Zr14  1  0.74925490  0.74925490  0.40045455  1
  Zr  Zr15  1  0.24925490  0.75074510  0.09954545  1
  Zr  Zr16  1  0.75074510  0.24925490  0.09954545  1
  Zr  Zr17  1  0.75074510  0.24925490  0.90045455  1
  Zr  Zr18  1  0.24925490  0.75074510  0.90045455  1
  Zr  Zr19  1  0.25074510  0.25074510  0.40045455  1
  S  S20  1  0.00000000  0.50000000  0.40439243  1
  S  S21  1  0.00000000  0.50000000  0.90439243  1
  S  S22  1  0.50000000  0.00000000  0.09560757  1
  S  S23  1  0.50000000  0.00000000  0.59560757  1
  S  S24  1  0.00000000  0.50000000  0.59560757  1
  S  S25  1  0.00000000  0.50000000  0.09560757  1
  S  S26  1  0.50000000  0.00000000  0.90439243  1
  S  S27  1  0.50000000  0.00000000  0.40439243  1
  S  S28  1  0.50000000  0.50000000  0.61048858  1
  S  S29  1  0.00000000  0.00000000  0.11048858  1
  S  S30  1  0.00000000  0.00000000  0.88951142  1
  S  S31  1  0.50000000  0.50000000  0.38951142  1
  S  S32  1  0.78140077  0.78140077  0.69743184  1
  S  S33  1  0.21859923  0.21859923  0.69743184  1
  S  S34  1  0.78140077  0.78140077  0.30256816  1
  S  S35  1  0.28140077  0.71859923  0.19743184  1
  S  S36  1  0.71859923  0.28140077  0.19743184  1
  S  S37  1  0.71859923  0.28140077  0.80256816  1
  S  S38  1  0.28140077  0.71859923  0.80256816  1
  S  S39  1  0.21859923  0.21859923  0.30256816  1
  S  S40  1  0.00000000  0.00000000  0.41700118  1
  S  S41  1  0.50000000  0.50000000  0.91700118  1
  S  S42  1  0.50000000  0.50000000  0.08299882  1
  S  S43  1  0.00000000  0.00000000  0.58299882  1
  S  S44  1  0.28952675  0.28952675  0.50000000  1
  S  S45  1  0.21047325  0.78952675  0.00000000  1
  S  S46  1  0.78952675  0.21047325  0.00000000  1
  S  S47  1  0.71047325  0.71047325  0.50000000  1
