# generated using pymatgen
data_AlTlSe2
_symmetry_space_group_name_H-M   'P 1'
_cell_length_a   7.65272017
_cell_length_b   7.65272017
_cell_length_c   15.74767331
_cell_angle_alpha   82.95399269
_cell_angle_beta   82.95399269
_cell_angle_gamma   90.08764840
_symmetry_Int_Tables_number   1
_chemical_formula_structural   AlTlSe2
_chemical_formula_sum   'Al8 Tl8 Se16'
_cell_volume   908.24297080
_cell_formula_units_Z   8
loop_
 _symmetry_equiv_pos_site_id
 _symmetry_equiv_pos_as_xyz
  1  'x, y, z'
loop_
 _atom_site_type_symbol
 _atom_site_label
 _atom_site_symmetry_multiplicity
 _atom_site_fract_x
 _atom_site_fract_y
 _atom_site_fract_z
 _atom_site_occupancy
  Al  Al0  1  0.41944277  0.29034777  0.83939209  1
  Al  Al1  1  0.70965223  0.58055723  0.66060791  1
  Al  Al2  1  0.58055723  0.70965223  0.16060791  1
  Al  Al3  1  0.29034777  0.41944277  0.33939209  1
  Al  Al4  1  0.70911666  0.08801443  0.66222244  1
  Al  Al5  1  0.91198557  0.29088334  0.83777756  1
  Al  Al6  1  0.29088334  0.91198557  0.33777756  1
  Al  Al7  1  0.08801443  0.70911666  0.16222244  1
  Tl  Tl8  1  0.65507182  0.77759642  0.88150649  1
  Tl  Tl9  1  0.22240358  0.34492818  0.61849351  1
  Tl  Tl10  1  0.34492818  0.22240358  0.11849351  1
  Tl  Tl11  1  0.77759642  0.65507182  0.38150649  1
  Tl  Tl12  1  0.22625998  0.84972539  0.61078459  1
  Tl  Tl13  1  0.15027461  0.77374002  0.88921541  1
  Tl  Tl14  1  0.77374002  0.15027461  0.38921541  1
  Tl  Tl15  1  0.84972539  0.22625998  0.11078459  1
  Se  Se16  1  0.64323269  0.26829616  0.93317251  1
  Se  Se17  1  0.73170384  0.35676731  0.56682749  1
  Se  Se18  1  0.35676731  0.73170384  0.06682749  1
  Se  Se19  1  0.26829616  0.64323269  0.43317251  1
  Se  Se20  1  0.43183988  0.05529456  0.75187183  1
  Se  Se21  1  0.94470544  0.56816012  0.74812817  1
  Se  Se22  1  0.56816012  0.94470544  0.24812817  1
  Se  Se23  1  0.05529456  0.43183988  0.25187183  1
  Se  Se24  1  0.43235054  0.56764946  0.75000000  1
  Se  Se25  1  0.56764946  0.43235054  0.25000000  1
  Se  Se26  1  0.94381998  0.05618002  0.75000000  1
  Se  Se27  1  0.05618002  0.94381998  0.25000000  1
  Se  Se28  1  0.72857206  0.85814907  0.57118987  1
  Se  Se29  1  0.14185093  0.27142794  0.92881013  1
  Se  Se30  1  0.27142794  0.14185093  0.42881013  1
  Se  Se31  1  0.85814907  0.72857206  0.07118987  1
