# generated using pymatgen
data_Er2S2O
_symmetry_space_group_name_H-M   'P 1'
_cell_length_a   6.79738802
_cell_length_b   6.78756073
_cell_length_c   8.18333571
_cell_angle_alpha   80.45408257
_cell_angle_beta   90.00000000
_cell_angle_gamma   90.00000000
_symmetry_Int_Tables_number   1
_chemical_formula_structural   Er2S2O
_chemical_formula_sum   'Er8 S8 O4'
_cell_volume   372.33208666
_cell_formula_units_Z   4
loop_
 _symmetry_equiv_pos_site_id
 _symmetry_equiv_pos_as_xyz
  1  'x, y, z'
loop_
 _atom_site_type_symbol
 _atom_site_label
 _atom_site_symmetry_multiplicity
 _atom_site_fract_x
 _atom_site_fract_y
 _atom_site_fract_z
 _atom_site_occupancy
  Er  Er0  1  0.05303049  0.25012197  0.86085097  1
  Er  Er1  1  0.55303049  0.24987803  0.13914903  1
  Er  Er2  1  0.94696951  0.74987803  0.13914903  1
  Er  Er3  1  0.44696951  0.75012197  0.86085097  1
  Er  Er4  1  0.14525385  0.32356970  0.42489249  1
  Er  Er5  1  0.64525385  0.17643030  0.57510751  1
  Er  Er6  1  0.85474615  0.67643030  0.57510751  1
  Er  Er7  1  0.35474615  0.82356970  0.42489249  1
  S  S8  1  0.77724355  0.53077539  0.92429343  1
  S  S9  1  0.27724355  0.96922461  0.07570657  1
  S  S10  1  0.22275645  0.46922461  0.07570657  1
  S  S11  1  0.72275645  0.03077539  0.92429343  1
  S  S12  1  0.86778604  0.07889493  0.31910275  1
  S  S13  1  0.36778604  0.42110507  0.68089725  1
  S  S14  1  0.13221396  0.92110507  0.68089725  1
  S  S15  1  0.63221396  0.57889493  0.31910275  1
  O  O16  1  0.58712697  0.85019016  0.61644935  1
  O  O17  1  0.08712697  0.64980984  0.38355065  1
  O  O18  1  0.41287303  0.14980984  0.38355065  1
  O  O19  1  0.91287303  0.35019016  0.61644935  1
