# generated using pymatgen
data_Cs(SbS2)2
_symmetry_space_group_name_H-M   'P 1'
_cell_length_a   6.66821915
_cell_length_b   6.71935183
_cell_length_c   9.71765876
_cell_angle_alpha   80.54273408
_cell_angle_beta   89.61722751
_cell_angle_gamma   76.23803319
_symmetry_Int_Tables_number   1
_chemical_formula_structural   Cs(SbS2)2
_chemical_formula_sum   'Cs2 Sb4 S8'
_cell_volume   416.92416852
_cell_formula_units_Z   2
loop_
 _symmetry_equiv_pos_site_id
 _symmetry_equiv_pos_as_xyz
  1  'x, y, z'
loop_
 _atom_site_type_symbol
 _atom_site_label
 _atom_site_symmetry_multiplicity
 _atom_site_fract_x
 _atom_site_fract_y
 _atom_site_fract_z
 _atom_site_occupancy
  Cs  Cs0  1  0.68671661  0.15917475  0.07426612  1
  Cs  Cs1  1  0.31328339  0.84082525  0.92573388  1
  Sb  Sb2  1  0.09683204  0.40598288  0.32016456  1
  Sb  Sb3  1  0.90316796  0.59401712  0.67983544  1
  Sb  Sb4  1  0.34443971  0.81637351  0.44889810  1
  Sb  Sb5  1  0.65556029  0.18362649  0.55110190  1
  S  S6  1  0.41261893  0.52838512  0.27924108  1
  S  S7  1  0.58738107  0.47161488  0.72075892  1
  S  S8  1  0.19702972  0.07309973  0.23371534  1
  S  S9  1  0.80297028  0.92690027  0.76628466  1
  S  S10  1  0.91761045  0.57256154  0.07683721  1
  S  S11  1  0.08238955  0.42743846  0.92316279  1
  S  S12  1  0.30188497  0.15890828  0.58695714  1
  S  S13  1  0.69811503  0.84109172  0.41304286  1
