# generated using pymatgen
data_Ba2GeAs2
_symmetry_space_group_name_H-M   'P 1'
_cell_length_a   9.80135078
_cell_length_b   7.73900868
_cell_length_c   8.83783470
_cell_angle_alpha   73.89393040
_cell_angle_beta   90.00000000
_cell_angle_gamma   90.00000000
_symmetry_Int_Tables_number   1
_chemical_formula_structural   Ba2GeAs2
_chemical_formula_sum   'Ba8 Ge4 As8'
_cell_volume   644.06163539
_cell_formula_units_Z   4
loop_
 _symmetry_equiv_pos_site_id
 _symmetry_equiv_pos_as_xyz
  1  'x, y, z'
loop_
 _atom_site_type_symbol
 _atom_site_label
 _atom_site_symmetry_multiplicity
 _atom_site_fract_x
 _atom_site_fract_y
 _atom_site_fract_z
 _atom_site_occupancy
  Ba  Ba0  1  0.66350641  0.39735063  0.48080574  1
  Ba  Ba1  1  0.16350641  0.10264937  0.51919426  1
  Ba  Ba2  1  0.33649359  0.60264937  0.51919426  1
  Ba  Ba3  1  0.83649359  0.89735063  0.48080574  1
  Ba  Ba4  1  0.86018406  0.75738417  0.99659690  1
  Ba  Ba5  1  0.36018406  0.74261583  0.00340310  1
  Ba  Ba6  1  0.13981594  0.24261583  0.00340310  1
  Ba  Ba7  1  0.63981594  0.25738417  0.99659690  1
  Ge  Ge8  1  0.46832727  0.02400462  0.36135138  1
  Ge  Ge9  1  0.03167273  0.52400462  0.36135138  1
  Ge  Ge10  1  0.53167273  0.97599538  0.63864862  1
  Ge  Ge11  1  0.96832727  0.47599538  0.63864862  1
  As  As12  1  0.59929986  0.67015814  0.75534905  1
  As  As13  1  0.40095996  0.16224562  0.76297272  1
  As  As14  1  0.59904004  0.83775438  0.23702728  1
  As  As15  1  0.09904004  0.66224562  0.76297272  1
  As  As16  1  0.09929986  0.82984186  0.24465095  1
  As  As17  1  0.40070014  0.32984186  0.24465095  1
  As  As18  1  0.90070014  0.17015814  0.75534905  1
  As  As19  1  0.90095996  0.33775438  0.23702728  1
