# generated using pymatgen
data_KLaSiS4
_symmetry_space_group_name_H-M   'P 1'
_cell_length_a   6.69271930
_cell_length_b   6.61863342
_cell_length_c   8.69618627
_cell_angle_alpha   72.70443087
_cell_angle_beta   90.00000000
_cell_angle_gamma   90.00000000
_symmetry_Int_Tables_number   1
_chemical_formula_structural   KLaSiS4
_chemical_formula_sum   'K2 La2 Si2 S8'
_cell_volume   367.79414483
_cell_formula_units_Z   2
loop_
 _symmetry_equiv_pos_site_id
 _symmetry_equiv_pos_as_xyz
  1  'x, y, z'
loop_
 _atom_site_type_symbol
 _atom_site_label
 _atom_site_symmetry_multiplicity
 _atom_site_fract_x
 _atom_site_fract_y
 _atom_site_fract_z
 _atom_site_occupancy
  K  K0  1  0.97393478  0.22681791  0.56640554  1
  K  K1  1  0.47393478  0.77318209  0.43359446  1
  La  La2  1  0.48956447  0.73208259  0.94782372  1
  La  La3  1  0.98956447  0.26791741  0.05217628  1
  Si  Si4  1  0.46238603  0.28506859  0.81461528  1
  Si  Si5  1  0.96238603  0.71493141  0.18538472  1
  S  S6  1  0.46144903  0.09238124  0.66183489  1
  S  S7  1  0.22667970  0.50992302  0.76784335  1
  S  S8  1  0.72263661  0.47714212  0.78168298  1
  S  S9  1  0.93034838  0.89632456  0.93879203  1
  S  S10  1  0.43034838  0.10367544  0.06120797  1
  S  S11  1  0.22263661  0.52285788  0.21831702  1
  S  S12  1  0.72667970  0.49007698  0.23215665  1
  S  S13  1  0.96144903  0.90761876  0.33816511  1
