# generated using pymatgen
data_Na2SnF6
_symmetry_space_group_name_H-M   'P 1'
_cell_length_a   5.02261199
_cell_length_b   5.02261199
_cell_length_c   10.03062163
_cell_angle_alpha   90.00000000
_cell_angle_beta   90.00000000
_cell_angle_gamma   90.00000000
_symmetry_Int_Tables_number   1
_chemical_formula_structural   Na2SnF6
_chemical_formula_sum   'Na4 Sn2 F12'
_cell_volume   253.03879259
_cell_formula_units_Z   2
loop_
 _symmetry_equiv_pos_site_id
 _symmetry_equiv_pos_as_xyz
  1  'x, y, z'
loop_
 _atom_site_type_symbol
 _atom_site_label
 _atom_site_symmetry_multiplicity
 _atom_site_fract_x
 _atom_site_fract_y
 _atom_site_fract_z
 _atom_site_occupancy
  Na  Na0  1  -0.00000000  0.00000000  0.33619588  1
  Na  Na1  1  0.50000000  0.50000000  0.83619588  1
  Na  Na2  1  -0.00000000  0.00000000  0.66380412  1
  Na  Na3  1  0.50000000  0.50000000  0.16380412  1
  Sn  Sn4  1  -0.00000000  0.00000000  0.00000000  1
  Sn  Sn5  1  0.50000000  0.50000000  0.50000000  1
  F  F6  1  0.72082791  0.72082791  0.00000000  1
  F  F7  1  0.77917209  0.22082791  0.50000000  1
  F  F8  1  0.22082791  0.77917209  0.50000000  1
  F  F9  1  0.27917209  0.27917209  0.00000000  1
  F  F10  1  0.68773774  0.68773774  0.35374008  1
  F  F11  1  0.31226226  0.31226226  0.35374008  1
  F  F12  1  0.31226226  0.31226226  0.64625992  1
  F  F13  1  0.18773774  0.81226226  0.14625992  1
  F  F14  1  0.81226226  0.18773774  0.14625992  1
  F  F15  1  0.81226226  0.18773774  0.85374008  1
  F  F16  1  0.18773774  0.81226226  0.85374008  1
  F  F17  1  0.68773774  0.68773774  0.64625992  1
