# generated using pymatgen
data_LiVSiO4
_symmetry_space_group_name_H-M   'P 1'
_cell_length_a   5.79554972
_cell_length_b   5.79554972
_cell_length_c   8.01811000
_cell_angle_alpha   90.00000000
_cell_angle_beta   90.00000000
_cell_angle_gamma   90.18790678
_symmetry_Int_Tables_number   1
_chemical_formula_structural   LiVSiO4
_chemical_formula_sum   'Li4 V4 Si4 O16'
_cell_volume   269.31401024
_cell_formula_units_Z   4
loop_
 _symmetry_equiv_pos_site_id
 _symmetry_equiv_pos_as_xyz
  1  'x, y, z'
loop_
 _atom_site_type_symbol
 _atom_site_label
 _atom_site_symmetry_multiplicity
 _atom_site_fract_x
 _atom_site_fract_y
 _atom_site_fract_z
 _atom_site_occupancy
  Li  Li0  1  0.28654400  0.50025000  0.62454500  1
  Li  Li1  1  0.49975000  0.71345600  0.37545500  1
  Li  Li2  1  0.50025000  0.28654400  0.87545500  1
  Li  Li3  1  0.71345600  0.49975000  0.12454500  1
  V  V4  1  0.99985400  0.72648000  0.37473200  1
  V  V5  1  0.00014600  0.27352000  0.87473200  1
  V  V6  1  0.27352000  0.00014600  0.62526800  1
  V  V7  1  0.72648000  0.99985400  0.12526800  1
  Si  Si8  1  0.24284200  0.75715800  0.00000000  1
  Si  Si9  1  0.24279000  0.24279000  0.25000000  1
  Si  Si10  1  0.75721000  0.75721000  0.75000000  1
  Si  Si11  1  0.75715800  0.24284200  0.50000000  1
  O  O12  1  0.99430600  0.76256900  0.62492800  1
  O  O13  1  0.99336700  0.23902800  0.62506400  1
  O  O14  1  0.23743100  0.00569400  0.37507200  1
  O  O15  1  0.23902800  0.99336700  0.87493600  1
  O  O16  1  0.23962800  0.47737600  0.36489400  1
  O  O17  1  0.23950000  0.52189200  0.88486600  1
  O  O18  1  0.52262400  0.76037200  0.63510600  1
  O  O19  1  0.52189200  0.23950000  0.61513400  1
  O  O20  1  0.47810800  0.76050000  0.11513400  1
  O  O21  1  0.47737600  0.23962800  0.13510600  1
  O  O22  1  0.76037200  0.52262400  0.86489400  1
  O  O23  1  0.76050000  0.47810800  0.38486600  1
  O  O24  1  0.76256900  0.99430600  0.87507200  1
  O  O25  1  0.76097200  0.00663300  0.37493600  1
  O  O26  1  0.00663300  0.76097200  0.12506400  1
  O  O27  1  0.00569400  0.23743100  0.12492800  1
