# generated using pymatgen
data_Fe9Si6O25
_symmetry_space_group_name_H-M   'P 1'
_cell_length_a   18.94590800
_cell_length_b   9.54006300
_cell_length_c   10.80578680
_cell_angle_alpha   73.33511879
_cell_angle_beta   90.00000000
_cell_angle_gamma   90.00000000
_symmetry_Int_Tables_number   1
_chemical_formula_structural   Fe9Si6O25
_chemical_formula_sum   'Fe36 Si24 O100'
_cell_volume   1871.06065961
_cell_formula_units_Z   4
loop_
 _symmetry_equiv_pos_site_id
 _symmetry_equiv_pos_as_xyz
  1  'x, y, z'
loop_
 _atom_site_type_symbol
 _atom_site_label
 _atom_site_symmetry_multiplicity
 _atom_site_fract_x
 _atom_site_fract_y
 _atom_site_fract_z
 _atom_site_occupancy
  Fe  Fe0  1  0.80980900  0.13441300  0.33018800  1
  Fe  Fe1  1  0.30980900  0.86558700  0.16981200  1
  Fe  Fe2  1  0.19019100  0.86558700  0.66981200  1
  Fe  Fe3  1  0.69019100  0.13441300  0.83018800  1
  Fe  Fe4  1  0.79981800  0.48522900  0.32812200  1
  Fe  Fe5  1  0.29981800  0.51477100  0.17187800  1
  Fe  Fe6  1  0.20018200  0.51477100  0.67187800  1
  Fe  Fe7  1  0.70018200  0.48522900  0.82812200  1
  Fe  Fe8  1  0.80578900  0.80190500  0.33490500  1
  Fe  Fe9  1  0.30578900  0.19809500  0.16509500  1
  Fe  Fe10  1  0.19421100  0.19809500  0.66509500  1
  Fe  Fe11  1  0.69421100  0.80190500  0.83490500  1
  Fe  Fe12  1  0.93004300  0.27238700  0.45433500  1
  Fe  Fe13  1  0.43004300  0.72761300  0.04566500  1
  Fe  Fe14  1  0.06995700  0.72761300  0.54566500  1
  Fe  Fe15  1  0.56995700  0.27238700  0.95433500  1
  Fe  Fe16  1  0.92964100  0.58175300  0.47996500  1
  Fe  Fe17  1  0.42964100  0.41824700  0.02003500  1
  Fe  Fe18  1  0.07035900  0.41824700  0.52003500  1
  Fe  Fe19  1  0.57035900  0.58175300  0.97996500  1
  Fe  Fe20  1  0.92536900  0.92957100  0.45214700  1
  Fe  Fe21  1  0.42536900  0.07042900  0.04785300  1
  Fe  Fe22  1  0.07463100  0.07042900  0.54785300  1
  Fe  Fe23  1  0.57463100  0.92957100  0.95214700  1
  Fe  Fe24  1  0.67971100  0.02272500  0.18394500  1
  Fe  Fe25  1  0.17971100  0.97727500  0.31605500  1
  Fe  Fe26  1  0.32028900  0.97727500  0.81605500  1
  Fe  Fe27  1  0.82028900  0.02272500  0.68394500  1
  Fe  Fe28  1  0.67887700  0.37081200  0.18089700  1
  Fe  Fe29  1  0.17887700  0.62918800  0.31910300  1
  Fe  Fe30  1  0.32112300  0.62918800  0.81910300  1
  Fe  Fe31  1  0.82112300  0.37081200  0.68089700  1
  Fe  Fe32  1  0.68124200  0.66937500  0.19557200  1
  Fe  Fe33  1  0.18124200  0.33062500  0.30442800  1
  Fe  Fe34  1  0.31875800  0.33062500  0.80442800  1
  Fe  Fe35  1  0.81875800  0.66937500  0.69557200  1
  Si  Si36  1  0.03550100  0.15854000  0.24485000  1
  Si  Si37  1  0.53550100  0.84146000  0.25515000  1
  Si  Si38  1  0.96449900  0.84146000  0.75515000  1
  Si  Si39  1  0.46449900  0.15854000  0.74485000  1
  Si  Si40  1  0.03573600  0.84609000  0.24395300  1
  Si  Si41  1  0.53573600  0.15391000  0.25604700  1
  Si  Si42  1  0.96426400  0.15391000  0.75604700  1
  Si  Si43  1  0.46426400  0.84609000  0.74395300  1
  Si  Si44  1  0.91875200  0.37783600  0.13455800  1
  Si  Si45  1  0.41875200  0.62216400  0.36544200  1
  Si  Si46  1  0.08124800  0.62216400  0.86544200  1
  Si  Si47  1  0.58124800  0.37783600  0.63455800  1
  Si  Si48  1  0.91954600  0.69713000  0.13811100  1
  Si  Si49  1  0.41954600  0.30287000  0.36188900  1
  Si  Si50  1  0.08045400  0.30287000  0.86188900  1
  Si  Si51  1  0.58045400  0.69713000  0.63811100  1
  Si  Si52  1  0.80734000  0.23200400  0.01904400  1
  Si  Si53  1  0.30734000  0.76799600  0.48095600  1
  Si  Si54  1  0.19266000  0.76799600  0.98095600  1
  Si  Si55  1  0.69266000  0.23200400  0.51904400  1
  Si  Si56  1  0.80847600  0.92278900  0.01836900  1
  Si  Si57  1  0.30847600  0.07721100  0.48163100  1
  Si  Si58  1  0.19152400  0.07721100  0.98163100  1
  Si  Si59  1  0.69152400  0.92278900  0.51836900  1
  O  O60  1  0.61984100  0.18712900  0.23622800  1
  O  O61  1  0.11984100  0.81287100  0.26377200  1
  O  O62  1  0.38015900  0.81287100  0.76377200  1
  O  O63  1  0.88015900  0.18712900  0.73622800  1
  O  O64  1  0.61824300  0.50878000  0.22094500  1
  O  O65  1  0.11824300  0.49122000  0.27905500  1
  O  O66  1  0.38175700  0.49122000  0.77905500  1
  O  O67  1  0.88175700  0.50878000  0.72094500  1
  O  O68  1  0.61953300  0.82484100  0.23480100  1
  O  O69  1  0.11953300  0.17515900  0.26519900  1
  O  O70  1  0.38046700  0.17515900  0.76519900  1
  O  O71  1  0.88046700  0.82484100  0.73480100  1
  O  O72  1  0.74130000  0.28703200  0.38658600  1
  O  O73  1  0.24130000  0.71296800  0.11341400  1
  O  O74  1  0.25870000  0.71296800  0.61341400  1
  O  O75  1  0.75870000  0.28703200  0.88658600  1
  O  O76  1  0.74161200  0.63735200  0.36062800  1
  O  O77  1  0.24161200  0.36264800  0.13937200  1
  O  O78  1  0.25838800  0.36264800  0.63937200  1
  O  O79  1  0.75838800  0.63735200  0.86062800  1
  O  O80  1  0.73636600  0.95442000  0.38118400  1
  O  O81  1  0.23636600  0.04558000  0.11881600  1
  O  O82  1  0.26363400  0.04558000  0.61881600  1
  O  O83  1  0.76363400  0.95442000  0.88118400  1
  O  O84  1  0.63356700  0.08906200  0.99723200  1
  O  O85  1  0.13356700  0.91093800  0.50276800  1
  O  O86  1  0.36643300  0.91093800  0.00276800  1
  O  O87  1  0.86643300  0.08906200  0.49723200  1
  O  O88  1  0.64133300  0.41549500  0.99531800  1
  O  O89  1  0.14133300  0.58450500  0.50468200  1
  O  O90  1  0.35866700  0.58450500  0.00468200  1
  O  O91  1  0.85866700  0.41549500  0.49531800  1
  O  O92  1  0.63582600  0.74637700  0.00041500  1
  O  O93  1  0.13582600  0.25362300  0.49958500  1
  O  O94  1  0.36417400  0.25362300  0.99958500  1
  O  O95  1  0.86417400  0.74637700  0.50041500  1
  O  O96  1  0.75838500  0.20459700  0.15238200  1
  O  O97  1  0.25838500  0.79540300  0.34761800  1
  O  O98  1  0.24161500  0.79540300  0.84761800  1
  O  O99  1  0.74161500  0.20459700  0.65238200  1
  O  O100  1  0.75385200  0.52230200  0.16304100  1
  O  O101  1  0.25385200  0.47769800  0.33695900  1
  O  O102  1  0.24614800  0.47769800  0.83695900  1
  O  O103  1  0.74614800  0.52230200  0.66304100  1
  O  O104  1  0.75629000  0.86679100  0.14454000  1
  O  O105  1  0.25629000  0.13320900  0.35546000  1
  O  O106  1  0.24371000  0.13320900  0.85546000  1
  O  O107  1  0.74371000  0.86679100  0.64454000  1
  O  O108  1  0.87585600  0.32049300  0.27540100  1
  O  O109  1  0.37585600  0.67950700  0.22459900  1
  O  O110  1  0.12414400  0.67950700  0.72459900  1
  O  O111  1  0.62414400  0.32049300  0.77540100  1
  O  O112  1  0.87766800  0.65829700  0.27926000  1
  O  O113  1  0.37766800  0.34170300  0.22074000  1
  O  O114  1  0.12233200  0.34170300  0.72074000  1
  O  O115  1  0.62233200  0.65829700  0.77926000  1
  O  O116  1  0.86826500  0.98333200  0.29420000  1
  O  O117  1  0.36826500  0.01666800  0.20580000  1
  O  O118  1  0.13173500  0.01666800  0.70580000  1
  O  O119  1  0.63173500  0.98333200  0.79420000  1
  O  O120  1  0.99923700  0.11852800  0.39300600  1
  O  O121  1  0.49923700  0.88147200  0.10699400  1
  O  O122  1  0.00076300  0.88147200  0.60699400  1
  O  O123  1  0.50076300  0.11852800  0.89300600  1
  O  O124  1  0.98859800  0.44575100  0.40473300  1
  O  O125  1  0.48859800  0.55424900  0.09526700  1
  O  O126  1  0.01140200  0.55424900  0.59526700  1
  O  O127  1  0.51140200  0.44575100  0.90473300  1
  O  O128  1  0.99884400  0.79340500  0.39077500  1
  O  O129  1  0.49884400  0.20659500  0.10922500  1
  O  O130  1  0.00115600  0.20659500  0.60922500  1
  O  O131  1  0.50115600  0.79340500  0.89077500  1
  O  O132  1  0.84306200  0.07796600  0.01733800  1
  O  O133  1  0.34306200  0.92203400  0.48266200  1
  O  O134  1  0.15693800  0.92203400  0.98266200  1
  O  O135  1  0.65693800  0.07796600  0.51733800  1
  O  O136  1  0.87081300  0.34390300  0.02257400  1
  O  O137  1  0.37081300  0.65609700  0.47742600  1
  O  O138  1  0.12918700  0.65609700  0.97742600  1
  O  O139  1  0.62918700  0.34390300  0.52257400  1
  O  O140  1  0.87159400  0.80687000  0.02656200  1
  O  O141  1  0.37159400  0.19313000  0.47343800  1
  O  O142  1  0.12840600  0.19313000  0.97343800  1
  O  O143  1  0.62840600  0.80687000  0.52656200  1
  O  O144  1  0.93174600  0.55134400  0.09543400  1
  O  O145  1  0.43174600  0.44865600  0.40456600  1
  O  O146  1  0.06825400  0.44865600  0.90456600  1
  O  O147  1  0.56825400  0.55134400  0.59543400  1
  O  O148  1  0.99605000  0.76882100  0.14862400  1
  O  O149  1  0.49605000  0.23117900  0.35137600  1
  O  O150  1  0.00395000  0.23117900  0.85137600  1
  O  O151  1  0.50395000  0.76882100  0.64862400  1
  O  O152  1  0.99524200  0.29726300  0.15099800  1
  O  O153  1  0.49524200  0.70273700  0.34900200  1
  O  O154  1  0.00475800  0.70273700  0.84900200  1
  O  O155  1  0.50475800  0.29726300  0.65099800  1
  O  O156  1  0.02205500  0.02105100  0.18729200  1
  O  O157  1  0.52205500  0.97894900  0.31270800  1
  O  O158  1  0.97794500  0.97894900  0.81270800  1
  O  O159  1  0.47794500  0.02105100  0.68729200  1
