# generated using pymatgen
data_Er2S3
_symmetry_space_group_name_H-M   'P 1'
_cell_length_a   3.89084190
_cell_length_b   10.90255543
_cell_length_c   11.15983962
_cell_angle_alpha   108.86251729
_cell_angle_beta   90.00000000
_cell_angle_gamma   90.00000000
_symmetry_Int_Tables_number   1
_chemical_formula_structural   Er2S3
_chemical_formula_sum   'Er8 S12'
_cell_volume   447.97866624
_cell_formula_units_Z   4
loop_
 _symmetry_equiv_pos_site_id
 _symmetry_equiv_pos_as_xyz
  1  'x, y, z'
loop_
 _atom_site_type_symbol
 _atom_site_label
 _atom_site_symmetry_multiplicity
 _atom_site_fract_x
 _atom_site_fract_y
 _atom_site_fract_z
 _atom_site_occupancy
  Er  Er0  1  0.25000000  0.33896722  0.91625649  1
  Er  Er1  1  0.75000000  0.66103278  0.08374351  1
  Er  Er2  1  0.25000000  0.45654680  0.30996590  1
  Er  Er3  1  0.75000000  0.54345320  0.69003410  1
  Er  Er4  1  0.25000000  0.81776126  0.49680655  1
  Er  Er5  1  0.75000000  0.18223874  0.50319345  1
  Er  Er6  1  0.25000000  0.06746690  0.16831238  1
  Er  Er7  1  0.75000000  0.93253310  0.83168762  1
  S  S8  1  0.25000000  0.38956679  0.53756768  1
  S  S9  1  0.75000000  0.61043321  0.46243232  1
  S  S10  1  0.25000000  0.69132412  0.24944408  1
  S  S11  1  0.75000000  0.30867588  0.75055592  1
  S  S12  1  0.25000000  0.02276422  0.38667226  1
  S  S13  1  0.75000000  0.97723578  0.61332774  1
  S  S14  1  0.25000000  0.58131975  0.90179189  1
  S  S15  1  0.75000000  0.41868025  0.09820811  1
  S  S16  1  0.75000000  0.24555468  0.27699632  1
  S  S17  1  0.25000000  0.75444532  0.72300368  1
  S  S18  1  0.75000000  0.89780450  0.06333709  1
  S  S19  1  0.25000000  0.10219550  0.93666291  1
