# generated using pymatgen
data_Hf(TlTe)4
_symmetry_space_group_name_H-M   'P 1'
_cell_length_a   9.82309151
_cell_length_b   9.82328478
_cell_length_c   9.82298534
_cell_angle_alpha   98.29578499
_cell_angle_beta   98.30185123
_cell_angle_gamma   98.29949064
_symmetry_Int_Tables_number   1
_chemical_formula_structural   Hf(TlTe)4
_chemical_formula_sum   'Hf3 Tl12 Te12'
_cell_volume   914.82091699
_cell_formula_units_Z   3
loop_
 _symmetry_equiv_pos_site_id
 _symmetry_equiv_pos_as_xyz
  1  'x, y, z'
loop_
 _atom_site_type_symbol
 _atom_site_label
 _atom_site_symmetry_multiplicity
 _atom_site_fract_x
 _atom_site_fract_y
 _atom_site_fract_z
 _atom_site_occupancy
  Hf  Hf0  1  0.75498258  0.75498687  0.75497391  1
  Hf  Hf1  1  0.24503232  0.24499089  0.24499475  1
  Hf  Hf2  1  0.50000127  0.49997646  0.49999911  1
  Tl  Tl3  1  0.67098839  0.11791418  0.98901869  1
  Tl  Tl4  1  0.98902651  0.67097748  0.11790332  1
  Tl  Tl5  1  0.11790370  0.98903051  0.67099378  1
  Tl  Tl6  1  0.32900891  0.88207768  0.01094363  1
  Tl  Tl7  1  0.01095903  0.32900272  0.88206695  1
  Tl  Tl8  1  0.88208671  0.01096281  0.32902247  1
  Tl  Tl9  1  0.63543489  0.46685036  0.13146086  1
  Tl  Tl10  1  0.13142744  0.63540471  0.46686041  1
  Tl  Tl11  1  0.46683880  0.13146747  0.63539853  1
  Tl  Tl12  1  0.36458384  0.53313189  0.86858297  1
  Tl  Tl13  1  0.86852697  0.36456848  0.53316109  1
  Tl  Tl14  1  0.53315775  0.86858528  0.36457973  1
  Te  Te15  1  0.70645460  0.80520218  0.03462021  1
  Te  Te16  1  0.03462409  0.70646524  0.80526988  1
  Te  Te17  1  0.80522048  0.03461493  0.70644566  1
  Te  Te18  1  0.29348657  0.19474866  0.96543352  1
  Te  Te19  1  0.96536511  0.29350067  0.19473683  1
  Te  Te20  1  0.19476522  0.96539453  0.29347748  1
  Te  Te21  1  0.45286869  0.75965272  0.65657909  1
  Te  Te22  1  0.65646289  0.45280373  0.75959792  1
  Te  Te23  1  0.75965685  0.65653722  0.45285204  1
  Te  Te24  1  0.54722513  0.24051615  0.34352291  1
  Te  Te25  1  0.34337099  0.54710259  0.24033085  1
  Te  Te26  1  0.24053926  0.34353561  0.54717339  1
