# generated using pymatgen
data_CsDyS2
_symmetry_space_group_name_H-M   'P 1'
_cell_length_a   4.07546189
_cell_length_b   4.07546556
_cell_length_c   16.11753766
_cell_angle_alpha   89.99971478
_cell_angle_beta   89.99964442
_cell_angle_gamma   119.99992339
_symmetry_Int_Tables_number   1
_chemical_formula_structural   CsDyS2
_chemical_formula_sum   'Cs2 Dy2 S4'
_cell_volume   231.83752093
_cell_formula_units_Z   2
loop_
 _symmetry_equiv_pos_site_id
 _symmetry_equiv_pos_as_xyz
  1  'x, y, z'
loop_
 _atom_site_type_symbol
 _atom_site_label
 _atom_site_symmetry_multiplicity
 _atom_site_fract_x
 _atom_site_fract_y
 _atom_site_fract_z
 _atom_site_occupancy
  Cs  Cs0  1  0.66664539  0.33333322  0.75000345  1
  Cs  Cs1  1  0.33331572  0.66666337  0.24999675  1
  Dy  Dy2  1  0.99998074  0.00000076  0.50002577  1
  Dy  Dy3  1  0.99999408  0.99999847  0.99997474  1
  S  S4  1  0.33332744  0.66666605  0.90907829  1
  S  S5  1  0.66665131  0.33333384  0.40915435  1
  S  S6  1  0.66666092  0.33333141  0.09084366  1
  S  S7  1  0.33331740  0.66666688  0.59092399  1
