# generated using pymatgen
data_AgAuO2
_symmetry_space_group_name_H-M   'P 1'
_cell_length_a   3.87882231
_cell_length_b   5.47932747
_cell_length_c   5.61158550
_cell_angle_alpha   104.01203467
_cell_angle_beta   90.00000000
_cell_angle_gamma   90.00000000
_symmetry_Int_Tables_number   1
_chemical_formula_structural   AgAuO2
_chemical_formula_sum   'Ag2 Au2 O4'
_cell_volume   115.71618055
_cell_formula_units_Z   2
loop_
 _symmetry_equiv_pos_site_id
 _symmetry_equiv_pos_as_xyz
  1  'x, y, z'
loop_
 _atom_site_type_symbol
 _atom_site_label
 _atom_site_symmetry_multiplicity
 _atom_site_fract_x
 _atom_site_fract_y
 _atom_site_fract_z
 _atom_site_occupancy
  Ag  Ag0  1  0.50000000  0.00000000  0.50000000  1
  Ag  Ag1  1  -0.00000000  0.50000000  0.50000000  1
  Au  Au2  1  0.50000000  0.50000000  -0.00000000  1
  Au  Au3  1  -0.00000000  0.00000000  -0.00000000  1
  O  O4  1  0.20574577  0.77745314  0.20016493  1
  O  O5  1  0.70574577  0.72254686  0.79983507  1
  O  O6  1  0.79425423  0.22254686  0.79983507  1
  O  O7  1  0.29425423  0.27745314  0.20016493  1
