# generated using pymatgen
data_CsTmS2
_symmetry_space_group_name_H-M   'P 1'
_cell_length_a   8.38239547
_cell_length_b   8.38239543
_cell_length_c   8.38239475
_cell_angle_alpha   27.75398388
_cell_angle_beta   27.75398167
_cell_angle_gamma   27.75398583
_symmetry_Int_Tables_number   1
_chemical_formula_structural   CsTmS2
_chemical_formula_sum   'Cs1 Tm1 S2'
_cell_volume   112.77271430
_cell_formula_units_Z   1
loop_
 _symmetry_equiv_pos_site_id
 _symmetry_equiv_pos_as_xyz
  1  'x, y, z'
loop_
 _atom_site_type_symbol
 _atom_site_label
 _atom_site_symmetry_multiplicity
 _atom_site_fract_x
 _atom_site_fract_y
 _atom_site_fract_z
 _atom_site_occupancy
  Cs  Cs0  1  -0.00000000  0.00000000  -0.00000000  1
  Tm  Tm1  1  0.50000000  0.50000000  0.50000000  1
  S  S2  1  0.77368507  0.77368507  0.77368507  1
  S  S3  1  0.22631493  0.22631493  0.22631493  1
