# generated using pymatgen
data_Ca7(H6Cl)2
_symmetry_space_group_name_H-M   'P 1'
_cell_length_a   9.31517061
_cell_length_b   9.31517815
_cell_length_c   3.67189698
_cell_angle_alpha   89.99995766
_cell_angle_beta   90.00004759
_cell_angle_gamma   119.99978887
_symmetry_Int_Tables_number   1
_chemical_formula_structural   Ca7(H6Cl)2
_chemical_formula_sum   'Ca7 H12 Cl2'
_cell_volume   275.93324132
_cell_formula_units_Z   1
loop_
 _symmetry_equiv_pos_site_id
 _symmetry_equiv_pos_as_xyz
  1  'x, y, z'
loop_
 _atom_site_type_symbol
 _atom_site_label
 _atom_site_symmetry_multiplicity
 _atom_site_fract_x
 _atom_site_fract_y
 _atom_site_fract_z
 _atom_site_occupancy
  Ca  Ca0  1  0.66666580  0.33333327  -0.00000056  1
  Ca  Ca1  1  0.07770297  0.43856918  0.00000022  1
  Ca  Ca2  1  0.56143126  0.63913391  0.00000141  1
  Ca  Ca3  1  0.36086796  0.92229716  -0.00000018  1
  Ca  Ca4  1  0.78139443  0.05134968  0.49999936  1
  Ca  Ca5  1  0.26995582  0.21860737  0.50000042  1
  Ca  Ca6  1  0.94864888  0.73004407  0.50000028  1
  H  H7  1  0.39132736  0.17587873  0.99999939  1
  H  H8  1  0.82412140  0.21544879  0.00000041  1
  H  H9  1  0.30208323  0.39210633  0.99999979  1
  H  H10  1  0.78455140  0.60867267  0.00000004  1
  H  H11  1  0.09002280  0.69791627  -0.00000008  1
  H  H12  1  0.60789340  0.90997684  0.00000038  1
  H  H13  1  0.56493785  0.11815515  0.49999995  1
  H  H14  1  0.05750440  0.28540432  0.49999998  1
  H  H15  1  0.55321804  0.43506207  0.49999981  1
  H  H16  1  0.88184570  0.44678240  0.50000007  1
  H  H17  1  0.71459587  0.77209964  0.49999996  1
  H  H18  1  0.22790064  0.94249611  0.50000004  1
  Cl  Cl19  1  -0.00000116  0.99999821  0.99999990  1
  Cl  Cl20  1  0.33333394  0.66666683  0.50000041  1
