# generated using pymatgen
data_Ba3TiS5
_symmetry_space_group_name_H-M   'P 1'
_cell_length_a   9.22017072
_cell_length_b   9.22017278
_cell_length_c   9.22022466
_cell_angle_alpha   124.87576462
_cell_angle_beta   124.87575059
_cell_angle_gamma   81.74338474
_symmetry_Int_Tables_number   1
_chemical_formula_structural   Ba3TiS5
_chemical_formula_sum   'Ba6 Ti2 S10'
_cell_volume   507.59902047
_cell_formula_units_Z   2
loop_
 _symmetry_equiv_pos_site_id
 _symmetry_equiv_pos_as_xyz
  1  'x, y, z'
loop_
 _atom_site_type_symbol
 _atom_site_label
 _atom_site_symmetry_multiplicity
 _atom_site_fract_x
 _atom_site_fract_y
 _atom_site_fract_z
 _atom_site_occupancy
  Ba  Ba0  1  0.66269622  0.16269654  0.82539007  1
  Ba  Ba1  1  0.16269915  0.33730016  0.49999974  1
  Ba  Ba2  1  0.83730055  0.66269941  0.50000029  1
  Ba  Ba3  1  0.33730365  0.83730375  0.17460952  1
  Ba  Ba4  1  0.25000030  0.24999951  -0.00000013  1
  Ba  Ba5  1  0.74999964  0.75000076  0.00000010  1
  Ti  Ti6  1  0.74999918  0.24999872  0.49999910  1
  Ti  Ti7  1  0.25000059  0.75000090  0.50000042  1
  S  S8  1  0.00491768  0.50491774  0.20451428  1
  S  S9  1  0.69960254  0.19960223  0.20451451  1
  S  S10  1  0.99508557  0.49508548  0.79549062  1
  S  S11  1  0.49508939  0.69960351  0.49999898  1
  S  S12  1  0.19960312  0.99508951  0.49999902  1
  S  S13  1  0.50490928  0.30039678  0.50000033  1
  S  S14  1  0.80039698  0.00490903  0.50000083  1
  S  S15  1  0.30039621  0.80039628  0.79548066  1
  S  S16  1  0.49999991  0.49999982  -0.00000007  1
  S  S17  1  0.00000002  -0.00000014  -0.00000028  1
