# generated using pymatgen
data_K3Gd(PO4)2
_symmetry_space_group_name_H-M   'P 1'
_cell_length_a   5.62526637
_cell_length_b   7.38146352
_cell_length_c   9.43329475
_cell_angle_alpha   89.17334678
_cell_angle_beta   90.00000000
_cell_angle_gamma   90.00000000
_symmetry_Int_Tables_number   1
_chemical_formula_structural   K3Gd(PO4)2
_chemical_formula_sum   'K6 Gd2 P4 O16'
_cell_volume   391.65508623
_cell_formula_units_Z   2
loop_
 _symmetry_equiv_pos_site_id
 _symmetry_equiv_pos_as_xyz
  1  'x, y, z'
loop_
 _atom_site_type_symbol
 _atom_site_label
 _atom_site_symmetry_multiplicity
 _atom_site_fract_x
 _atom_site_fract_y
 _atom_site_fract_z
 _atom_site_occupancy
  K  K0  1  0.75000000  0.63509674  0.59109029  1
  K  K1  1  0.25000000  0.36490326  0.40890971  1
  K  K2  1  0.75000000  0.49338043  0.19089082  1
  K  K3  1  0.25000000  0.50661957  0.80910918  1
  K  K4  1  0.25000000  0.79866281  0.08229128  1
  K  K5  1  0.75000000  0.20133719  0.91770872  1
  Gd  Gd6  1  0.75000000  0.99276119  0.29006388  1
  Gd  Gd7  1  0.25000000  0.00723881  0.70993612  1
  P  P8  1  0.75000000  0.76820280  0.91179203  1
  P  P9  1  0.25000000  0.23179720  0.08820797  1
  P  P10  1  0.75000000  0.18997609  0.57305950  1
  P  P11  1  0.25000000  0.81002391  0.42694050  1
  O  O12  1  0.75000000  0.82527748  0.06861232  1
  O  O13  1  0.25000000  0.17472252  0.93138768  1
  O  O14  1  0.75000000  0.56295893  0.89826210  1
  O  O15  1  0.25000000  0.43704107  0.10173790  1
  O  O16  1  0.02680748  0.15244485  0.16219783  1
  O  O17  1  0.52680748  0.84755515  0.83780217  1
  O  O18  1  0.97319252  0.84755515  0.83780217  1
  O  O19  1  0.47319252  0.15244485  0.16219783  1
  O  O20  1  0.75000000  0.28333693  0.42532750  1
  O  O21  1  0.25000000  0.71666307  0.57467250  1
  O  O22  1  0.52647704  0.24467743  0.65716181  1
  O  O23  1  0.02647704  0.75532257  0.34283819  1
  O  O24  1  0.47352296  0.75532257  0.34283819  1
  O  O25  1  0.97352296  0.24467743  0.65716181  1
  O  O26  1  0.75000000  0.98526505  0.54645639  1
  O  O27  1  0.25000000  0.01473495  0.45354361  1
