# generated using pymatgen
data_La4Au2O9
_symmetry_space_group_name_H-M   'P 1'
_cell_length_a   6.33130087
_cell_length_b   12.11519718
_cell_length_c   12.12043998
_cell_angle_alpha   90.00000000
_cell_angle_beta   90.00000000
_cell_angle_gamma   90.00000000
_symmetry_Int_Tables_number   1
_chemical_formula_structural   La4Au2O9
_chemical_formula_sum   'La16 Au8 O36'
_cell_volume   929.69784501
_cell_formula_units_Z   4
loop_
 _symmetry_equiv_pos_site_id
 _symmetry_equiv_pos_as_xyz
  1  'x, y, z'
loop_
 _atom_site_type_symbol
 _atom_site_label
 _atom_site_symmetry_multiplicity
 _atom_site_fract_x
 _atom_site_fract_y
 _atom_site_fract_z
 _atom_site_occupancy
  La  La0  1  0.74311255  0.08910323  0.01072617  1
  La  La1  1  0.74311255  0.41089677  0.98927383  1
  La  La2  1  0.75688745  0.58910323  0.48927383  1
  La  La3  1  0.75688745  0.91089677  0.51072617  1
  La  La4  1  0.25688745  0.91089677  0.98927383  1
  La  La5  1  0.25688745  0.58910323  0.01072617  1
  La  La6  1  0.24311255  0.41089677  0.51072617  1
  La  La7  1  0.24311255  0.08910323  0.48927383  1
  La  La8  1  0.80132028  0.26345037  0.34031283  1
  La  La9  1  0.80132028  0.23654963  0.65968717  1
  La  La10  1  0.69867972  0.76345037  0.15968717  1
  La  La11  1  0.69867972  0.73654963  0.84031283  1
  La  La12  1  0.19867972  0.73654963  0.65968717  1
  La  La13  1  0.19867972  0.76345037  0.34031283  1
  La  La14  1  0.30132028  0.23654963  0.84031283  1
  La  La15  1  0.30132028  0.26345037  0.15968717  1
  Au  Au16  1  0.57828763  0.01058077  0.27061793  1
  Au  Au17  1  0.57828763  0.48941923  0.72938207  1
  Au  Au18  1  0.92171237  0.51058077  0.22938207  1
  Au  Au19  1  0.92171237  0.98941923  0.77061793  1
  Au  Au20  1  0.42171237  0.98941923  0.72938207  1
  Au  Au21  1  0.42171237  0.51058077  0.27061793  1
  Au  Au22  1  0.07828763  0.48941923  0.77061793  1
  Au  Au23  1  0.07828763  0.01058077  0.22938207  1
  O  O24  1  0.94350056  0.44700105  0.38273550  1
  O  O25  1  0.94350056  0.05299895  0.61726450  1
  O  O26  1  0.55649944  0.94700105  0.11726450  1
  O  O27  1  0.55649944  0.55299895  0.88273550  1
  O  O28  1  0.05649944  0.55299895  0.61726450  1
  O  O29  1  0.05649944  0.94700105  0.38273550  1
  O  O30  1  0.44350056  0.05299895  0.88273550  1
  O  O31  1  0.44350056  0.44700105  0.11726450  1
  O  O32  1  0.94390552  0.35511684  0.16459360  1
  O  O33  1  0.94390552  0.14488316  0.83540640  1
  O  O34  1  0.55609448  0.85511684  0.33540640  1
  O  O35  1  0.55609448  0.64488316  0.66459360  1
  O  O36  1  0.05609448  0.64488316  0.83540640  1
  O  O37  1  0.05609448  0.85511684  0.16459360  1
  O  O38  1  0.62025773  0.15650237  0.19835483  1
  O  O39  1  0.44390552  0.14488316  0.66459360  1
  O  O40  1  0.60886695  0.08587490  0.41991664  1
  O  O41  1  0.60886695  0.41412510  0.58008336  1
  O  O42  1  0.89113305  0.58587490  0.08008336  1
  O  O43  1  0.89113305  0.91412510  0.91991664  1
  O  O44  1  0.39113305  0.91412510  0.58008336  1
  O  O45  1  0.39113305  0.58587490  0.41991664  1
  O  O46  1  0.10886695  0.41412510  0.91991664  1
  O  O47  1  0.10886695  0.08587490  0.08008336  1
  O  O48  1  0.02300250  0.25000000  0.50000000  1
  O  O49  1  0.47699750  0.75000000  -0.00000000  1
  O  O50  1  0.97699750  0.75000000  0.50000000  1
  O  O51  1  0.52300250  0.25000000  -0.00000000  1
  O  O52  1  0.12025773  0.15650237  0.30164517  1
  O  O53  1  0.12025773  0.34349763  0.69835483  1
  O  O54  1  0.37974227  0.65650237  0.19835483  1
  O  O55  1  0.37974227  0.84349763  0.80164517  1
  O  O56  1  0.87974227  0.84349763  0.69835483  1
  O  O57  1  0.87974227  0.65650237  0.30164517  1
  O  O58  1  0.62025773  0.34349763  0.80164517  1
  O  O59  1  0.44390552  0.35511684  0.33540640  1
