# generated using pymatgen
data_Al2Ge2O7
_symmetry_space_group_name_H-M   'P 1'
_cell_length_a   5.26972275
_cell_length_b   5.26972275
_cell_length_c   9.72417856
_cell_angle_alpha   76.28005541
_cell_angle_beta   76.28005541
_cell_angle_gamma   94.47269968
_symmetry_Int_Tables_number   1
_chemical_formula_structural   Al2Ge2O7
_chemical_formula_sum   'Al4 Ge4 O14'
_cell_volume   252.25857037
_cell_formula_units_Z   2
loop_
 _symmetry_equiv_pos_site_id
 _symmetry_equiv_pos_as_xyz
  1  'x, y, z'
loop_
 _atom_site_type_symbol
 _atom_site_label
 _atom_site_symmetry_multiplicity
 _atom_site_fract_x
 _atom_site_fract_y
 _atom_site_fract_z
 _atom_site_occupancy
  Al  Al0  1  0.40629868  0.25222667  0.97900008  1
  Al  Al1  1  0.74777333  0.59370132  0.52099992  1
  Al  Al2  1  0.59370132  0.74777333  0.02099992  1
  Al  Al3  1  0.25222667  0.40629868  0.47900008  1
  Ge  Ge4  1  0.48904377  0.99290232  0.70559783  1
  Ge  Ge5  1  0.00709768  0.51095623  0.79440217  1
  Ge  Ge6  1  0.51095623  0.00709768  0.29440217  1
  Ge  Ge7  1  0.99290232  0.48904377  0.20559783  1
  O  O8  1  0.56188025  0.01701970  0.87163592  1
  O  O9  1  0.98298030  0.43811975  0.62836408  1
  O  O10  1  0.43811975  0.98298030  0.12836408  1
  O  O11  1  0.01701970  0.56188025  0.37163592  1
  O  O12  1  0.48239689  0.31648589  0.60216834  1
  O  O13  1  0.68351411  0.51760311  0.89783166  1
  O  O14  1  0.51760311  0.68351411  0.39783166  1
  O  O15  1  0.31648589  0.48239689  0.10216834  1
  O  O16  1  0.83476725  0.16523275  0.25000000  1
  O  O17  1  0.16523275  0.83476725  0.75000000  1
  O  O18  1  0.85421335  0.71812403  0.10206772  1
  O  O19  1  0.28187597  0.14578665  0.39793228  1
  O  O20  1  0.14578665  0.28187597  0.89793228  1
  O  O21  1  0.71812403  0.85421335  0.60206772  1
