# generated using pymatgen
data_NaSmSe2
_symmetry_space_group_name_H-M   'P 1'
_cell_length_a   4.21073522
_cell_length_b   4.21073362
_cell_length_c   7.34878360
_cell_angle_alpha   73.35194584
_cell_angle_beta   73.35194166
_cell_angle_gamma   59.99999639
_symmetry_Int_Tables_number   1
_chemical_formula_structural   NaSmSe2
_chemical_formula_sum   'Na1 Sm1 Se2'
_cell_volume   106.48639345
_cell_formula_units_Z   1
loop_
 _symmetry_equiv_pos_site_id
 _symmetry_equiv_pos_as_xyz
  1  'x, y, z'
loop_
 _atom_site_type_symbol
 _atom_site_label
 _atom_site_symmetry_multiplicity
 _atom_site_fract_x
 _atom_site_fract_y
 _atom_site_fract_z
 _atom_site_occupancy
  Na  Na0  1  0.00000000  0.00000000  0.00000000  1
  Sm  Sm1  1  0.50000000  0.50000000  0.50000000  1
  Se  Se2  1  0.75469234  0.75469234  0.73591997  1
  Se  Se3  1  0.24530766  0.24530766  0.26408003  1
