# generated using pymatgen
data_NaSmS2
_symmetry_space_group_name_H-M   'P 1'
_cell_length_a   4.06061519
_cell_length_b   4.06061497
_cell_length_c   7.02237350
_cell_angle_alpha   73.19473509
_cell_angle_beta   73.19473828
_cell_angle_gamma   60.00001032
_symmetry_Int_Tables_number   1
_chemical_formula_structural   NaSmS2
_chemical_formula_sum   'Na1 Sm1 S2'
_cell_volume   94.52317331
_cell_formula_units_Z   1
loop_
 _symmetry_equiv_pos_site_id
 _symmetry_equiv_pos_as_xyz
  1  'x, y, z'
loop_
 _atom_site_type_symbol
 _atom_site_label
 _atom_site_symmetry_multiplicity
 _atom_site_fract_x
 _atom_site_fract_y
 _atom_site_fract_z
 _atom_site_occupancy
  Na  Na0  1  0.50000000  0.50000000  0.50000000  1
  Sm  Sm1  1  -0.00000000  0.00000000  -0.00000000  1
  S  S2  1  0.74459443  0.74459443  0.76621370  1
  S  S3  1  0.25540557  0.25540557  0.23378630  1
