# generated using pymatgen
data_KH8N3
_symmetry_space_group_name_H-M   'P 1'
_cell_length_a   5.96193817
_cell_length_b   5.96193817
_cell_length_c   6.57899674
_cell_angle_alpha   90.00000000
_cell_angle_beta   90.00000000
_cell_angle_gamma   109.63841393
_symmetry_Int_Tables_number   1
_chemical_formula_structural   KH8N3
_chemical_formula_sum   'K2 H16 N6'
_cell_volume   220.24608888
_cell_formula_units_Z   2
loop_
 _symmetry_equiv_pos_site_id
 _symmetry_equiv_pos_as_xyz
  1  'x, y, z'
loop_
 _atom_site_type_symbol
 _atom_site_label
 _atom_site_symmetry_multiplicity
 _atom_site_fract_x
 _atom_site_fract_y
 _atom_site_fract_z
 _atom_site_occupancy
  K  K0  1  0.06207993  0.93792007  0.75000000  1
  K  K1  1  0.93792007  0.06207993  0.25000000  1
  H  H2  1  0.47928885  0.78899103  0.52432376  1
  H  H3  1  0.50464706  0.07149856  0.55487746  1
  H  H4  1  0.41612348  0.40884089  0.62072750  1
  H  H5  1  0.59014298  0.92084528  0.73456246  1
  H  H6  1  0.07915472  0.40985702  0.76543754  1
  H  H7  1  0.59115911  0.58387652  0.87927250  1
  H  H8  1  0.92850144  0.49535294  0.94512254  1
  H  H9  1  0.21100897  0.52071115  0.97567624  1
  H  H10  1  0.52071115  0.21100897  0.02432376  1
  H  H11  1  0.49535294  0.92850144  0.05487746  1
  H  H12  1  0.58387652  0.59115911  0.12072750  1
  H  H13  1  0.40985702  0.07915472  0.23456246  1
  H  H14  1  0.92084528  0.59014298  0.26543754  1
  H  H15  1  0.40884089  0.41612348  0.37927250  1
  H  H16  1  0.07149856  0.50464706  0.44512254  1
  H  H17  1  0.78899103  0.47928885  0.47567624  1
  N  N18  1  0.31825778  0.31825778  0.50000000  1
  N  N19  1  0.58788019  0.94755547  0.58128369  1
  N  N20  1  0.05244453  0.41211981  0.91871631  1
  N  N21  1  0.68174222  0.68174222  -0.00000000  1
  N  N22  1  0.41211981  0.05244453  0.08128369  1
  N  N23  1  0.94755547  0.58788019  0.41871631  1
