# generated using pymatgen
data_CsTbS2
_symmetry_space_group_name_H-M   'P 1'
_cell_length_a   4.09788540
_cell_length_b   4.09787664
_cell_length_c   16.11867598
_cell_angle_alpha   89.99984832
_cell_angle_beta   90.00025520
_cell_angle_gamma   119.99939407
_symmetry_Int_Tables_number   1
_chemical_formula_structural   CsTbS2
_chemical_formula_sum   'Cs2 Tb2 S4'
_cell_volume   234.41280834
_cell_formula_units_Z   2
loop_
 _symmetry_equiv_pos_site_id
 _symmetry_equiv_pos_as_xyz
  1  'x, y, z'
loop_
 _atom_site_type_symbol
 _atom_site_label
 _atom_site_symmetry_multiplicity
 _atom_site_fract_x
 _atom_site_fract_y
 _atom_site_fract_z
 _atom_site_occupancy
  Cs  Cs0  1  0.33328070  0.66668928  0.25000017  1
  Cs  Cs1  1  0.66668144  0.33331300  0.74999999  1
  Tb  Tb2  1  -0.00000121  0.00000111  0.99999008  1
  Tb  Tb3  1  0.99998016  -0.00000003  0.50001046  1
  S  S4  1  0.33332217  0.66666488  0.59112250  1
  S  S5  1  0.66666244  0.33333615  0.09110741  1
  S  S6  1  0.66664159  0.33333515  0.40889363  1
  S  S7  1  0.33333371  0.66666547  0.90887776  1
