# generated using pymatgen
data_CsGaH4
_symmetry_space_group_name_H-M   'P 1'
_cell_length_a   5.56457620
_cell_length_b   5.56457620
_cell_length_c   7.77417896
_cell_angle_alpha   90.00000000
_cell_angle_beta   90.00000000
_cell_angle_gamma   90.00000000
_symmetry_Int_Tables_number   1
_chemical_formula_structural   CsGaH4
_chemical_formula_sum   'Cs2 Ga2 H8'
_cell_volume   240.72362882
_cell_formula_units_Z   2
loop_
 _symmetry_equiv_pos_site_id
 _symmetry_equiv_pos_as_xyz
  1  'x, y, z'
loop_
 _atom_site_type_symbol
 _atom_site_label
 _atom_site_symmetry_multiplicity
 _atom_site_fract_x
 _atom_site_fract_y
 _atom_site_fract_z
 _atom_site_occupancy
  Cs  Cs0  1  0.25000000  0.74999900  0.25000000  1
  Cs  Cs1  1  0.74999900  0.25000000  0.75000100  1
  Ga  Ga2  1  0.74999900  0.25000000  0.25000000  1
  Ga  Ga3  1  0.25000000  0.74999900  0.75000100  1
  H  H4  1  0.74999900  0.01662844  0.13219397  1
  H  H5  1  0.74999900  0.48337156  0.13219397  1
  H  H6  1  0.51662744  0.25000000  0.36780503  1
  H  H7  1  0.98337256  0.25000000  0.36780503  1
  H  H8  1  0.01662844  0.74999900  0.63219397  1
  H  H9  1  0.48337156  0.74999900  0.63219397  1
  H  H10  1  0.25000000  0.51662744  0.86780603  1
  H  H11  1  0.25000000  0.98337256  0.86780603  1
