# generated using pymatgen
data_Rb(SbSe2)2
_symmetry_space_group_name_H-M   'P 1'
_cell_length_a   6.72206306
_cell_length_b   7.03939377
_cell_length_c   9.71577482
_cell_angle_alpha   80.63418766
_cell_angle_beta   86.31601522
_cell_angle_gamma   75.54559159
_symmetry_Int_Tables_number   1
_chemical_formula_structural   Rb(SbSe2)2
_chemical_formula_sum   'Rb2 Sb4 Se8'
_cell_volume   439.12168406
_cell_formula_units_Z   2
loop_
 _symmetry_equiv_pos_site_id
 _symmetry_equiv_pos_as_xyz
  1  'x, y, z'
loop_
 _atom_site_type_symbol
 _atom_site_label
 _atom_site_symmetry_multiplicity
 _atom_site_fract_x
 _atom_site_fract_y
 _atom_site_fract_z
 _atom_site_occupancy
  Rb  Rb0  1  0.18223917  0.17942256  0.56642980  1
  Rb  Rb1  1  0.81776083  0.82057744  0.43357020  1
  Sb  Sb2  1  0.84442674  0.81450360  0.95448032  1
  Sb  Sb3  1  0.15557326  0.18549640  0.04551968  1
  Sb  Sb4  1  0.42342836  0.60109037  0.16966561  1
  Sb  Sb5  1  0.57657164  0.39890963  0.83033439  1
  Se  Se6  1  0.20985882  0.85205278  0.88930852  1
  Se  Se7  1  0.79014118  0.14794722  0.11069148  1
  Se  Se8  1  0.31843672  0.93413607  0.26960319  1
  Se  Se9  1  0.68156328  0.06586393  0.73039681  1
  Se  Se10  1  0.39882755  0.58668657  0.58647980  1
  Se  Se11  1  0.60117245  0.41331343  0.41352020  1
  Se  Se12  1  0.08682121  0.48368010  0.21935327  1
  Se  Se13  1  0.91317879  0.51631990  0.78064673  1
