# generated using pymatgen
data_Al2CdS4
_symmetry_space_group_name_H-M   'P 1'
_cell_length_a   7.26761096
_cell_length_b   7.26761125
_cell_length_c   7.26760989
_cell_angle_alpha   59.99999035
_cell_angle_beta   59.99998780
_cell_angle_gamma   59.99998721
_symmetry_Int_Tables_number   1
_chemical_formula_structural   Al2CdS4
_chemical_formula_sum   'Al4 Cd2 S8'
_cell_volume   271.43125556
_cell_formula_units_Z   2
loop_
 _symmetry_equiv_pos_site_id
 _symmetry_equiv_pos_as_xyz
  1  'x, y, z'
loop_
 _atom_site_type_symbol
 _atom_site_label
 _atom_site_symmetry_multiplicity
 _atom_site_fract_x
 _atom_site_fract_y
 _atom_site_fract_z
 _atom_site_occupancy
  Al  Al0  1  0.50000002  0.00000001  0.49999999  1
  Al  Al1  1  -0.00000001  0.50000001  0.50000000  1
  Al  Al2  1  0.50000003  0.49999999  0.49999998  1
  Al  Al3  1  0.50000002  0.49999999  0.00000001  1
  Cd  Cd4  1  0.87500020  0.87500012  0.87499988  1
  Cd  Cd5  1  0.12500025  0.12500020  0.12499972  1
  S  S6  1  0.26446979  0.26446970  0.70658950  1
  S  S7  1  0.73553037  0.73553044  0.73553048  1
  S  S8  1  0.26446959  0.26446951  0.26446957  1
  S  S9  1  0.73553020  0.73553022  0.29341054  1
  S  S10  1  0.29341047  0.73553019  0.73553027  1
  S  S11  1  0.73553012  0.29341054  0.73553028  1
  S  S12  1  0.70658916  0.26446985  0.26446990  1
  S  S13  1  0.26446978  0.70658923  0.26446988  1
