# generated using pymatgen
data_K3IO5
_symmetry_space_group_name_H-M   'P 1'
_cell_length_a   6.22815654
_cell_length_b   6.22815654
_cell_length_c   16.26097603
_cell_angle_alpha   90.00000000
_cell_angle_beta   90.00000000
_cell_angle_gamma   90.00000000
_symmetry_Int_Tables_number   1
_chemical_formula_structural   K3IO5
_chemical_formula_sum   'K12 I4 O20'
_cell_volume   630.76218514
_cell_formula_units_Z   4
loop_
 _symmetry_equiv_pos_site_id
 _symmetry_equiv_pos_as_xyz
  1  'x, y, z'
loop_
 _atom_site_type_symbol
 _atom_site_label
 _atom_site_symmetry_multiplicity
 _atom_site_fract_x
 _atom_site_fract_y
 _atom_site_fract_z
 _atom_site_occupancy
  K  K0  1  0.50000000  -0.00000000  0.39403952  1
  K  K1  1  0.00000000  0.50000000  0.10596048  1
  K  K2  1  0.00000000  0.50000000  0.60596048  1
  K  K3  1  0.50000000  -0.00000000  0.89403952  1
  K  K4  1  0.50000000  0.50000000  0.00000000  1
  K  K5  1  0.00000000  -0.00000000  0.00000000  1
  K  K6  1  0.00000000  -0.00000000  0.50000000  1
  K  K7  1  0.50000000  0.50000000  0.50000000  1
  K  K8  1  0.50000000  0.50000000  0.25000000  1
  K  K9  1  0.00000000  -0.00000000  0.25000000  1
  K  K10  1  0.00000000  -0.00000000  0.75000000  1
  K  K11  1  0.50000000  0.50000000  0.75000000  1
  I  I12  1  0.50000000  -0.00000000  0.12894435  1
  I  I13  1  0.00000000  0.50000000  0.37105565  1
  I  I14  1  0.00000000  0.50000000  0.87105565  1
  I  I15  1  0.50000000  -0.00000000  0.62894435  1
  O  O16  1  0.50000000  -0.00000000  0.23961209  1
  O  O17  1  0.00000000  0.50000000  0.26038791  1
  O  O18  1  0.00000000  0.50000000  0.76038791  1
  O  O19  1  0.50000000  -0.00000000  0.73961209  1
  O  O20  1  0.70423589  0.20675749  0.10603323  1
  O  O21  1  0.29324251  0.20423589  0.10603323  1
  O  O22  1  0.70675749  0.79576411  0.10603323  1
  O  O23  1  0.20423589  0.29324251  0.39396677  1
  O  O24  1  0.79576411  0.70675749  0.39396677  1
  O  O25  1  0.29576411  0.79324251  0.10603323  1
  O  O26  1  0.20675749  0.70423589  0.39396677  1
  O  O27  1  0.79324251  0.29576411  0.39396677  1
  O  O28  1  0.79576411  0.29324251  0.89396677  1
  O  O29  1  0.20675749  0.29576411  0.89396677  1
  O  O30  1  0.79324251  0.70423589  0.89396677  1
  O  O31  1  0.29576411  0.20675749  0.60603323  1
  O  O32  1  0.70423589  0.79324251  0.60603323  1
  O  O33  1  0.20423589  0.70675749  0.89396677  1
  O  O34  1  0.29324251  0.79576411  0.60603323  1
  O  O35  1  0.70675749  0.20423589  0.60603323  1
