# generated using pymatgen
data_K2SnSe3
_symmetry_space_group_name_H-M   'P 1'
_cell_length_a   6.92788303
_cell_length_b   7.63602729
_cell_length_c   8.72049342
_cell_angle_alpha   76.22489123
_cell_angle_beta   75.23667796
_cell_angle_gamma   67.67696739
_symmetry_Int_Tables_number   1
_chemical_formula_structural   K2SnSe3
_chemical_formula_sum   'K4 Sn2 Se6'
_cell_volume   407.48295679
_cell_formula_units_Z   2
loop_
 _symmetry_equiv_pos_site_id
 _symmetry_equiv_pos_as_xyz
  1  'x, y, z'
loop_
 _atom_site_type_symbol
 _atom_site_label
 _atom_site_symmetry_multiplicity
 _atom_site_fract_x
 _atom_site_fract_y
 _atom_site_fract_z
 _atom_site_occupancy
  K  K0  1  0.38683603  0.79107312  0.89621366  1
  K  K1  1  0.61316397  0.20892688  0.10378634  1
  K  K2  1  0.14487235  0.46746295  0.68630397  1
  K  K3  1  0.85512765  0.53253705  0.31369603  1
  Sn  Sn4  1  0.84877911  0.06283776  0.68902073  1
  Sn  Sn5  1  0.15122089  0.93716224  0.31097927  1
  Se  Se6  1  0.65302825  0.40470578  0.71451791  1
  Se  Se7  1  0.76872916  0.95537276  0.45449240  1
  Se  Se8  1  0.85980884  0.80765397  0.92730403  1
  Se  Se9  1  0.34697175  0.59529422  0.28548209  1
  Se  Se10  1  0.14019116  0.19234603  0.07269597  1
  Se  Se11  1  0.23127084  0.04462724  0.54550760  1
