# generated using pymatgen
data_Ba(LuS2)2
_symmetry_space_group_name_H-M   'P 1'
_cell_length_a   3.95904328
_cell_length_b   12.16681935
_cell_length_c   14.28681425
_cell_angle_alpha   90.00000000
_cell_angle_beta   90.00000000
_cell_angle_gamma   90.00000000
_symmetry_Int_Tables_number   1
_chemical_formula_structural   Ba(LuS2)2
_chemical_formula_sum   'Ba4 Lu8 S16'
_cell_volume   688.18104681
_cell_formula_units_Z   4
loop_
 _symmetry_equiv_pos_site_id
 _symmetry_equiv_pos_as_xyz
  1  'x, y, z'
loop_
 _atom_site_type_symbol
 _atom_site_label
 _atom_site_symmetry_multiplicity
 _atom_site_fract_x
 _atom_site_fract_y
 _atom_site_fract_z
 _atom_site_occupancy
  Ba  Ba0  1  0.25000000  0.75825213  0.66273131  1
  Ba  Ba1  1  0.75000000  0.74174787  0.16273131  1
  Ba  Ba2  1  0.25000000  0.25825213  0.83726869  1
  Ba  Ba3  1  0.75000000  0.24174787  0.33726869  1
  Lu  Lu4  1  0.25000000  0.43508827  0.60858144  1
  Lu  Lu5  1  0.75000000  0.06491173  0.10858144  1
  Lu  Lu6  1  0.25000000  0.93508827  0.89141856  1
  Lu  Lu7  1  0.75000000  0.56491173  0.39141856  1
  Lu  Lu8  1  0.25000000  0.42153283  0.10097022  1
  Lu  Lu9  1  0.75000000  0.07846717  0.60097022  1
  Lu  Lu10  1  0.25000000  0.92153283  0.39902978  1
  Lu  Lu11  1  0.75000000  0.57846717  0.89902978  1
  S  S12  1  0.25000000  0.52326301  0.78323432  1
  S  S13  1  0.75000000  0.97673699  0.28323432  1
  S  S14  1  0.25000000  0.02326301  0.71676568  1
  S  S15  1  0.75000000  0.47673699  0.21676568  1
  S  S16  1  0.25000000  0.12072347  0.47767562  1
  S  S17  1  0.75000000  0.37927653  0.97767562  1
  S  S18  1  0.25000000  0.62072347  0.02232438  1
  S  S19  1  0.75000000  0.87927653  0.52232438  1
  S  S20  1  0.25000000  0.20663356  0.15664018  1
  S  S21  1  0.75000000  0.29336644  0.65664018  1
  S  S22  1  0.25000000  0.70663356  0.34335982  1
  S  S23  1  0.75000000  0.79336644  0.84335982  1
  S  S24  1  0.25000000  0.41995424  0.42452825  1
  S  S25  1  0.75000000  0.08004576  0.92452825  1
  S  S26  1  0.25000000  0.91995424  0.07547175  1
  S  S27  1  0.75000000  0.58004576  0.57547175  1
