# generated using pymatgen
data_BaReN3
_symmetry_space_group_name_H-M   'P 1'
_cell_length_a   7.98970704
_cell_length_b   7.98970704
_cell_length_c   6.14392328
_cell_angle_alpha   81.54328598
_cell_angle_beta   81.54328598
_cell_angle_gamma   91.19638265
_symmetry_Int_Tables_number   1
_chemical_formula_structural   BaReN3
_chemical_formula_sum   'Ba4 Re4 N12'
_cell_volume   383.35537609
_cell_formula_units_Z   4
loop_
 _symmetry_equiv_pos_site_id
 _symmetry_equiv_pos_as_xyz
  1  'x, y, z'
loop_
 _atom_site_type_symbol
 _atom_site_label
 _atom_site_symmetry_multiplicity
 _atom_site_fract_x
 _atom_site_fract_y
 _atom_site_fract_z
 _atom_site_occupancy
  Ba  Ba0  1  0.32851664  0.67148336  0.25000000  1
  Ba  Ba1  1  0.10009540  0.89990460  0.75000000  1
  Ba  Ba2  1  0.67148336  0.32851664  0.75000000  1
  Ba  Ba3  1  0.89990460  0.10009540  0.25000000  1
  Re  Re4  1  0.20419014  0.36961971  0.76012495  1
  Re  Re5  1  0.63038029  0.79580986  0.73987505  1
  Re  Re6  1  0.36961971  0.20419014  0.26012495  1
  Re  Re7  1  0.79580986  0.63038029  0.23987505  1
  N  N8  1  0.76517503  0.97958276  0.68177565  1
  N  N9  1  0.64234891  0.68042540  0.48634095  1
  N  N10  1  0.35765109  0.31957460  0.51365905  1
  N  N11  1  0.97958276  0.76517503  0.18177565  1
  N  N12  1  0.85367058  0.42345522  0.31680778  1
  N  N13  1  0.23482497  0.02041724  0.31822435  1
  N  N14  1  0.14632942  0.57654478  0.68319222  1
  N  N15  1  0.42345522  0.85367058  0.81680778  1
  N  N16  1  0.57654478  0.14632942  0.18319222  1
  N  N17  1  0.68042540  0.64234891  0.98634095  1
  N  N18  1  0.31957460  0.35765109  0.01365905  1
  N  N19  1  0.02041724  0.23482497  0.81822435  1
