# generated using pymatgen
data_LiBeAs
_symmetry_space_group_name_H-M   'P 1'
_cell_length_a   3.73657199
_cell_length_b   3.73657199
_cell_length_c   6.16510828
_cell_angle_alpha   90.00000000
_cell_angle_beta   90.00000000
_cell_angle_gamma   90.00000000
_symmetry_Int_Tables_number   1
_chemical_formula_structural   LiBeAs
_chemical_formula_sum   'Li2 Be2 As2'
_cell_volume   86.07705831
_cell_formula_units_Z   2
loop_
 _symmetry_equiv_pos_site_id
 _symmetry_equiv_pos_as_xyz
  1  'x, y, z'
loop_
 _atom_site_type_symbol
 _atom_site_label
 _atom_site_symmetry_multiplicity
 _atom_site_fract_x
 _atom_site_fract_y
 _atom_site_fract_z
 _atom_site_occupancy
  Li  Li0  1  0.25000000  0.25000000  0.34689442  1
  Li  Li1  1  0.75000000  0.75000000  0.65310558  1
  Be  Be2  1  0.25000000  0.75000000  0.00000000  1
  Be  Be3  1  0.75000000  0.25000000  0.00000000  1
  As  As4  1  0.25000000  0.25000000  0.77650437  1
  As  As5  1  0.75000000  0.75000000  0.22349563  1
