# generated using pymatgen
data_Na3AgS2
_symmetry_space_group_name_H-M   'P 1'
_cell_length_a   6.38831055
_cell_length_b   6.90833659
_cell_length_c   7.82361809
_cell_angle_alpha   116.19996195
_cell_angle_beta   114.09625209
_cell_angle_gamma   89.99999864
_symmetry_Int_Tables_number   1
_chemical_formula_structural   Na3AgS2
_chemical_formula_sum   'Na6 Ag2 S4'
_cell_volume   275.87322208
_cell_formula_units_Z   2
loop_
 _symmetry_equiv_pos_site_id
 _symmetry_equiv_pos_as_xyz
  1  'x, y, z'
loop_
 _atom_site_type_symbol
 _atom_site_label
 _atom_site_symmetry_multiplicity
 _atom_site_fract_x
 _atom_site_fract_y
 _atom_site_fract_z
 _atom_site_occupancy
  Na  Na0  1  0.50000000  0.75000000  -0.00000000  1
  Na  Na1  1  0.50000000  0.25000000  -0.00000000  1
  Na  Na2  1  0.76755840  0.51755840  0.53511679  1
  Na  Na3  1  0.23244160  0.98244160  0.46488321  1
  Na  Na4  1  0.23244160  0.48244160  0.46488321  1
  Na  Na5  1  0.76755840  0.01755840  0.53511679  1
  Ag  Ag6  1  -0.00000000  0.50000000  -0.00000000  1
  Ag  Ag7  1  -0.00000000  -0.00000000  -0.00000000  1
  S  S8  1  0.13902678  0.36861605  0.73723309  1
  S  S9  1  0.40179368  0.13138395  0.26276691  1
  S  S10  1  0.59820632  0.86861605  0.73723309  1
  S  S11  1  0.86097322  0.63138395  0.26276691  1
