# generated using pymatgen
data_CdSeO3
_symmetry_space_group_name_H-M   'P 1'
_cell_length_a   5.32817807
_cell_length_b   6.31758539
_cell_length_c   8.12471485
_cell_angle_alpha   90.00000000
_cell_angle_beta   90.00000000
_cell_angle_gamma   90.00000000
_symmetry_Int_Tables_number   1
_chemical_formula_structural   CdSeO3
_chemical_formula_sum   'Cd4 Se4 O12'
_cell_volume   273.48781344
_cell_formula_units_Z   4
loop_
 _symmetry_equiv_pos_site_id
 _symmetry_equiv_pos_as_xyz
  1  'x, y, z'
loop_
 _atom_site_type_symbol
 _atom_site_label
 _atom_site_symmetry_multiplicity
 _atom_site_fract_x
 _atom_site_fract_y
 _atom_site_fract_z
 _atom_site_occupancy
  Cd  Cd0  1  0.00000000  0.00000000  0.50000000  1
  Cd  Cd1  1  0.50000000  0.50000000  0.50000000  1
  Cd  Cd2  1  0.50000000  0.50000000  -0.00000000  1
  Cd  Cd3  1  0.00000000  0.00000000  -0.00000000  1
  Se  Se4  1  0.48300460  0.97207665  0.75000000  1
  Se  Se5  1  0.98300460  0.52792335  0.25000000  1
  Se  Se6  1  0.01699540  0.47207665  0.75000000  1
  Se  Se7  1  0.51699540  0.02792335  0.25000000  1
  O  O8  1  0.63192899  0.17417344  0.41289868  1
  O  O9  1  0.13192899  0.32582656  0.58710132  1
  O  O10  1  0.86807101  0.67417344  0.08710132  1
  O  O11  1  0.36807101  0.82582656  0.91289868  1
  O  O12  1  0.36807101  0.82582656  0.58710132  1
  O  O13  1  0.86807101  0.67417344  0.41289868  1
  O  O14  1  0.13192899  0.32582656  0.91289868  1
  O  O15  1  0.63192899  0.17417344  0.08710132  1
  O  O16  1  0.20401636  0.09088296  0.25000000  1
  O  O17  1  0.70401636  0.40911704  0.75000000  1
  O  O18  1  0.29598364  0.59088296  0.25000000  1
  O  O19  1  0.79598364  0.90911704  0.75000000  1
