# generated using pymatgen
data_KHo(CO3)2
_symmetry_space_group_name_H-M   'P 1'
_cell_length_a   6.32547098
_cell_length_b   6.32547098
_cell_length_c   6.85680105
_cell_angle_alpha   77.20645440
_cell_angle_beta   77.20645440
_cell_angle_gamma   97.84977023
_symmetry_Int_Tables_number   1
_chemical_formula_structural   KHo(CO3)2
_chemical_formula_sum   'K2 Ho2 C4 O12'
_cell_volume   255.88076915
_cell_formula_units_Z   2
loop_
 _symmetry_equiv_pos_site_id
 _symmetry_equiv_pos_as_xyz
  1  'x, y, z'
loop_
 _atom_site_type_symbol
 _atom_site_label
 _atom_site_symmetry_multiplicity
 _atom_site_fract_x
 _atom_site_fract_y
 _atom_site_fract_z
 _atom_site_occupancy
  K  K0  1  0.87847848  0.12152152  0.25000000  1
  K  K1  1  0.12152152  0.87847848  0.75000000  1
  Ho  Ho2  1  0.40736776  0.59263224  0.25000000  1
  Ho  Ho3  1  0.59263224  0.40736776  0.75000000  1
  C  C4  1  0.60350566  0.85665324  0.74657802  1
  C  C5  1  0.14334676  0.39649434  0.75342198  1
  C  C6  1  0.39649434  0.14334676  0.25342198  1
  C  C7  1  0.85665324  0.60350566  0.24657802  1
  O  O8  1  0.05855338  0.59102047  0.22559601  1
  O  O9  1  0.40897953  0.94144662  0.27440399  1
  O  O10  1  0.94144662  0.40897953  0.77440399  1
  O  O11  1  0.59102047  0.05855338  0.72559601  1
  O  O12  1  0.79066232  0.74442305  0.11878995  1
  O  O13  1  0.25557695  0.20933768  0.38121005  1
  O  O14  1  0.20933768  0.25557695  0.88121005  1
  O  O15  1  0.74442305  0.79066232  0.61878995  1
  O  O16  1  0.70099063  0.46483941  0.39719345  1
  O  O17  1  0.53516059  0.29900937  0.10280655  1
  O  O18  1  0.29900937  0.53516059  0.60280655  1
  O  O19  1  0.46483941  0.70099063  0.89719345  1
