# generated using pymatgen
data_LaAuO2
_symmetry_space_group_name_H-M   'P 1'
_cell_length_a   3.87548553
_cell_length_b   3.87548440
_cell_length_c   11.89625834
_cell_angle_alpha   90.00003953
_cell_angle_beta   89.99999144
_cell_angle_gamma   120.00000567
_symmetry_Int_Tables_number   1
_chemical_formula_structural   LaAuO2
_chemical_formula_sum   'La2 Au2 O4'
_cell_volume   154.73661989
_cell_formula_units_Z   2
loop_
 _symmetry_equiv_pos_site_id
 _symmetry_equiv_pos_as_xyz
  1  'x, y, z'
loop_
 _atom_site_type_symbol
 _atom_site_label
 _atom_site_symmetry_multiplicity
 _atom_site_fract_x
 _atom_site_fract_y
 _atom_site_fract_z
 _atom_site_occupancy
  La  La0  1  -0.00000007  -0.00000062  0.00000005  1
  La  La1  1  0.00000011  0.00000010  0.49999998  1
  Au  Au2  1  0.66666690  0.33333311  0.75000051  1
  Au  Au3  1  0.33333307  0.66666698  0.24999944  1
  O  O4  1  0.66666664  0.33333272  0.58147349  1
  O  O5  1  0.33333322  0.66666692  0.08147371  1
  O  O6  1  0.33333342  0.66666746  0.41852650  1
  O  O7  1  0.66666672  0.33333332  0.91852632  1
