# generated using pymatgen
data_NaNdSe2
_symmetry_space_group_name_H-M   'P 1'
_cell_length_a   4.26664270
_cell_length_b   4.26664183
_cell_length_c   7.35549777
_cell_angle_alpha   73.14019578
_cell_angle_beta   73.14019594
_cell_angle_gamma   59.99999880
_symmetry_Int_Tables_number   1
_chemical_formula_structural   NaNdSe2
_chemical_formula_sum   'Na1 Nd1 Se2'
_cell_volume   109.26553441
_cell_formula_units_Z   1
loop_
 _symmetry_equiv_pos_site_id
 _symmetry_equiv_pos_as_xyz
  1  'x, y, z'
loop_
 _atom_site_type_symbol
 _atom_site_label
 _atom_site_symmetry_multiplicity
 _atom_site_fract_x
 _atom_site_fract_y
 _atom_site_fract_z
 _atom_site_occupancy
  Na  Na0  1  0.50000000  0.50000000  0.50000000  1
  Nd  Nd1  1  -0.00000000  0.00000000  0.00000000  1
  Se  Se2  1  0.74640100  0.74640100  0.76079499  1
  Se  Se3  1  0.25359900  0.25359900  0.23920501  1
