# generated using pymatgen
data_BaNaP
_symmetry_space_group_name_H-M   'P 1'
_cell_length_a   7.96893375
_cell_length_b   7.96893417
_cell_length_c   4.69856292
_cell_angle_alpha   90.00000000
_cell_angle_beta   90.00000000
_cell_angle_gamma   119.99999820
_symmetry_Int_Tables_number   1
_chemical_formula_structural   BaNaP
_chemical_formula_sum   'Ba3 Na3 P3'
_cell_volume   258.40216157
_cell_formula_units_Z   3
loop_
 _symmetry_equiv_pos_site_id
 _symmetry_equiv_pos_as_xyz
  1  'x, y, z'
loop_
 _atom_site_type_symbol
 _atom_site_label
 _atom_site_symmetry_multiplicity
 _atom_site_fract_x
 _atom_site_fract_y
 _atom_site_fract_z
 _atom_site_occupancy
  Ba  Ba0  1  0.00000000  0.58782111  0.50000000  1
  Ba  Ba1  1  0.58782111  0.00000000  0.50000000  1
  Ba  Ba2  1  0.41217889  0.41217889  0.50000000  1
  Na  Na3  1  0.24176981  0.00000000  -0.00000000  1
  Na  Na4  1  0.75823019  0.75823019  -0.00000000  1
  Na  Na5  1  0.00000000  0.24176981  0.00000000  1
  P  P6  1  0.66666700  0.33333300  -0.00000000  1
  P  P7  1  0.00000000  0.00000000  0.50000000  1
  P  P8  1  0.33333300  0.66666700  -0.00000000  1
