# generated using pymatgen
data_NaYSe2
_symmetry_space_group_name_H-M   'P 1'
_cell_length_a   4.12371565
_cell_length_b   4.12371441
_cell_length_c   7.32015253
_cell_angle_alpha   73.64017790
_cell_angle_beta   73.64017281
_cell_angle_gamma   60.00000186
_symmetry_Int_Tables_number   1
_chemical_formula_structural   NaYSe2
_chemical_formula_sum   'Na1 Y1 Se2'
_cell_volume   101.94114703
_cell_formula_units_Z   1
loop_
 _symmetry_equiv_pos_site_id
 _symmetry_equiv_pos_as_xyz
  1  'x, y, z'
loop_
 _atom_site_type_symbol
 _atom_site_label
 _atom_site_symmetry_multiplicity
 _atom_site_fract_x
 _atom_site_fract_y
 _atom_site_fract_z
 _atom_site_occupancy
  Na  Na0  1  -0.00000000  0.00000000  0.00000000  1
  Y  Y1  1  0.50000000  0.50000000  0.50000000  1
  Se  Se2  1  0.75596138  0.75596138  0.73211886  1
  Se  Se3  1  0.24403862  0.24403862  0.26788114  1
