# generated using pymatgen
data_CsBeAsO4
_symmetry_space_group_name_H-M   'P 1'
_cell_length_a   5.17260925
_cell_length_b   8.84962436
_cell_length_c   9.43690686
_cell_angle_alpha   90.00000000
_cell_angle_beta   90.00000000
_cell_angle_gamma   90.00000000
_symmetry_Int_Tables_number   1
_chemical_formula_structural   CsBeAsO4
_chemical_formula_sum   'Cs4 Be4 As4 O16'
_cell_volume   431.98053440
_cell_formula_units_Z   4
loop_
 _symmetry_equiv_pos_site_id
 _symmetry_equiv_pos_as_xyz
  1  'x, y, z'
loop_
 _atom_site_type_symbol
 _atom_site_label
 _atom_site_symmetry_multiplicity
 _atom_site_fract_x
 _atom_site_fract_y
 _atom_site_fract_z
 _atom_site_occupancy
  Cs  Cs0  1  0.49770503  0.31817911  0.49410559  1
  Cs  Cs1  1  0.99770503  0.68182089  0.50589441  1
  Cs  Cs2  1  0.49770503  0.18182089  0.99410559  1
  Cs  Cs3  1  0.99770503  0.81817911  0.00589441  1
  Be  Be4  1  -0.00085798  0.09513924  0.32990021  1
  Be  Be5  1  0.49914202  0.59513924  0.17009979  1
  Be  Be6  1  -0.00085798  0.40486076  0.82990021  1
  Be  Be7  1  0.49914202  0.90486076  0.67009979  1
  As  As8  1  0.50030746  0.91408113  0.32570778  1
  As  As9  1  0.00030746  0.08591887  0.67429222  1
  As  As10  1  0.50030746  0.58591887  0.82570778  1
  As  As11  1  0.00030746  0.41408113  0.17429222  1
  O  O12  1  0.01541343  0.12380118  0.49980914  1
  O  O13  1  0.51541343  0.62380118  0.00019086  1
  O  O14  1  0.01541343  0.37619882  -0.00019086  1
  O  O15  1  0.51541343  0.87619882  0.50019086  1
  O  O16  1  0.69604257  0.46132512  0.22368486  1
  O  O17  1  0.19604257  0.53867488  0.77631514  1
  O  O18  1  0.69604257  0.03867488  0.72368486  1
  O  O19  1  0.19604257  0.96132512  0.27631514  1
  O  O20  1  0.59195023  0.75530123  0.24098213  1
  O  O21  1  0.09195023  0.24469877  0.75901787  1
  O  O22  1  0.59195023  0.74469877  0.74098213  1
  O  O23  1  0.09195023  0.25530123  0.25901787  1
  O  O24  1  0.70543926  0.44519521  0.77772455  1
  O  O25  1  0.20543926  0.55480479  0.22227545  1
  O  O26  1  0.70543926  0.05480479  0.27772455  1
  O  O27  1  0.20543926  0.94519521  0.72227545  1
